


 34 36  0  0  0  0  0  0  0  0999 V2000
    2.4655   67.1291   83.7660 C   0  0  0  0  0  0  0  0  0  0  0  0
    2.2020   65.8122   84.1607 C   0  0  0  0  0  0  0  0  0  0  0  0
    1.2902   65.0140   83.4576 C   0  0  0  0  0  0  0  0  0  0  0  0
    0.6224   65.5129   82.3447 C   0  0  0  0  0  0  0  0  0  0  0  0
    0.8831   66.8266   81.9431 C   0  0  0  0  0  0  0  0  0  0  0  0
    1.7985   67.6450   82.6364 C   0  0  0  0  0  0  0  0  0  0  0  0
    1.9913   69.0360   82.1013 C   0  0  0  0  0  0  0  0  0  0  0  0
    1.0392   69.9122   82.1779 N   0  0  0  0  0  0  0  0  0  0  0  0
    1.2538   71.1799   81.6782 C   0  0  0  0  0  0  0  0  0  0  0  0
    2.4075   71.5749   81.0997 C   0  0  0  0  0  0  0  0  0  0  0  0
    3.4942   70.5647   81.0223 C   0  0  0  0  0  0  0  0  0  0  0  0
    4.5935   70.8102   80.5361 O   0  0  0  0  0  0  0  0  0  0  0  0
    3.1953   69.3406   81.5315 N   0  0  0  0  0  0  0  0  0  0  0  0
    3.9281   68.6444   81.4895 H   0  0  0  0  0  0  0  0  0  0  0  0
    0.0487   72.0868   81.8446 C   0  0  0  0  0  0  0  0  0  0  0  0
   -0.9085   71.9815   80.6640 C   0  0  0  0  0  0  0  0  0  0  0  0
    2.7209   72.9228   80.5069 C   0  0  0  0  0  0  0  0  0  0  0  0
    3.2618   73.8917   81.5486 C   0  0  0  0  0  0  0  0  0  0  0  0
   -0.3109   64.7798   81.5821 N   0  0  0  0  0  0  0  0  0  0  0  0
   -0.2492   63.4353   81.2347 C   0  0  0  0  0  0  0  0  0  0  0  0
    0.6468   62.6561   81.5429 O   0  0  0  0  0  0  0  0  0  0  0  0
   -1.1128   65.3046   81.2524 H   0  0  0  0  0  0  0  0  0  0  0  0
   -1.4727   62.9953   80.3970 C   0  0  0  0  0  0  0  0  0  0  0  0
   -2.2872   61.9647   81.1965 C   0  0  0  0  0  0  0  0  0  0  0  0
   -2.7950   60.9908   80.1425 C   0  0  0  0  0  0  0  0  0  0  0  0
   -1.6546   60.9473   79.1418 C   0  0  0  0  0  0  0  0  0  0  0  0
   -1.1387   62.3025   79.1484 N   0  0  0  0  0  0  0  0  0  0  0  0
   -0.5767   62.8470   78.0150 C   0  0  0  0  0  0  0  0  0  0  0  0
   -0.1369   64.2878   78.0801 C   0  0  0  0  0  0  0  0  0  0  0  0
   -0.4265   62.1982   76.9791 O   0  0  0  0  0  0  0  0  0  0  0  0
    3.3448   67.9520   84.4221 O   0  0  0  0  0  0  0  0  0  0  0  0
    4.7380   67.6336   84.3737 C   0  0  0  0  0  0  0  0  0  0  0  0
    6.5374   66.5499   85.7922 C   0  0  0  0  0  0  0  0  0  0  0  0
    5.2125   67.3001   85.7869 C   0  0  0  0  0  0  0  0  0  0  0  0
 33 34  1  0  0  0
 34 32  1  0  0  0
 32 31  1  0  0  0
 31  1  1  0  0  0
  1  2  1  0  0  0
  2  3  2  0  0  0
  3  4  1  0  0  0
  4 19  1  0  0  0
 19 20  1  0  0  0
 20 21  2  0  0  0
 20 23  1  0  0  0
 23 24  1  0  0  0
 24 25  1  0  0  0
 25 26  1  0  0  0
 26 27  1  0  0  0
 27 28  1  0  0  0
 28 29  1  0  0  0
 28 30  2  0  0  0
  4  5  2  0  0  0
  5  6  1  0  0  0
  6  7  1  0  0  0
  7  8  2  0  0  0
  8  9  1  0  0  0
  9 15  1  0  0  0
 15 16  1  0  0  0
  9 10  2  0  0  0
 10 17  1  0  0  0
 17 18  1  0  0  0
 10 11  1  0  0  0
 11 12  2  0  0  0
 11 13  1  0  0  0
  6  1  2  0  0  0
 13  7  1  0  0  0
 27 23  1  0  0  0
 19 22  1  0  0  0
 13 14  1  0  0  0
M  END
> <minimizedAffinity>
-1.37555

$$$$



 34 36  0  0  0  0  0  0  0  0999 V2000
    2.4119   74.9656   81.3484 C   0  0  0  0  0  0  0  0  0  0  0  0
    1.2091   74.2500   81.3304 C   0  0  0  0  0  0  0  0  0  0  0  0
    1.1990   72.8528   81.2277 C   0  0  0  0  0  0  0  0  0  0  0  0
    2.3896   72.1396   81.1418 C   0  0  0  0  0  0  0  0  0  0  0  0
    3.5950   72.8480   81.1622 C   0  0  0  0  0  0  0  0  0  0  0  0
    3.6260   74.2539   81.2668 C   0  0  0  0  0  0  0  0  0  0  0  0
    4.9855   74.8941   81.2812 C   0  0  0  0  0  0  0  0  0  0  0  0
    5.6407   75.0807   80.1785 N   0  0  0  0  0  0  0  0  0  0  0  0
    6.8849   75.6739   80.2309 C   0  0  0  0  0  0  0  0  0  0  0  0
    7.4790   76.0756   81.3743 C   0  0  0  0  0  0  0  0  0  0  0  0
    6.7169   75.8625   82.6318 C   0  0  0  0  0  0  0  0  0  0  0  0
    7.1436   76.2023   83.7307 O   0  0  0  0  0  0  0  0  0  0  0  0
    5.5042   75.2657   82.4895 N   0  0  0  0  0  0  0  0  0  0  0  0
    4.9725   75.1188   83.3376 H   0  0  0  0  0  0  0  0  0  0  0  0
    7.5202   75.8243   78.8612 C   0  0  0  0  0  0  0  0  0  0  0  0
    7.1087   74.7009   77.9180 C   0  0  0  0  0  0  0  0  0  0  0  0
    8.8375   76.7057   81.5290 C   0  0  0  0  0  0  0  0  0  0  0  0
    8.7803   78.2216   81.4050 C   0  0  0  0  0  0  0  0  0  0  0  0
    2.4699   70.7353   81.0340 N   0  0  0  0  0  0  0  0  0  0  0  0
    1.5389   69.7992   81.4691 C   0  0  0  0  0  0  0  0  0  0  0  0
    0.4767   70.0517   82.0284 O   0  0  0  0  0  0  0  0  0  0  0  0
    3.3081   70.3794   80.5895 H   0  0  0  0  0  0  0  0  0  0  0  0
    1.9838   68.3507   81.1592 C   0  0  0  0  0  0  0  0  0  0  0  0
    1.0298   67.7420   80.1179 C   0  0  0  0  0  0  0  0  0  0  0  0
    0.9081   66.2819   80.5312 C   0  0  0  0  0  0  0  0  0  0  0  0
    0.9766   66.3501   82.0459 C   0  0  0  0  0  0  0  0  0  0  0  0
    1.9072   67.4326   82.3001 N   0  0  0  0  0  0  0  0  0  0  0  0
    2.7082   67.4235   83.4206 C   0  0  0  0  0  0  0  0  0  0  0  0
    3.7056   68.5441   83.5718 C   0  0  0  0  0  0  0  0  0  0  0  0
    2.6261   66.5451   84.2799 O   0  0  0  0  0  0  0  0  0  0  0  0
    2.4757   76.3323   81.4429 O   0  0  0  0  0  0  0  0  0  0  0  0
    1.4491   77.0112   82.1708 C   0  0  0  0  0  0  0  0  0  0  0  0
    1.0869   78.4565   84.2212 C   0  0  0  0  0  0  0  0  0  0  0  0
    2.1030   77.8739   83.2485 C   0  0  0  0  0  0  0  0  0  0  0  0
 33 34  1  0  0  0
 34 32  1  0  0  0
 32 31  1  0  0  0
 31  1  1  0  0  0
  1  2  1  0  0  0
  2  3  2  0  0  0
  3  4  1  0  0  0
  4 19  1  0  0  0
 19 20  1  0  0  0
 20 21  2  0  0  0
 20 23  1  0  0  0
 23 24  1  0  0  0
 24 25  1  0  0  0
 25 26  1  0  0  0
 26 27  1  0  0  0
 27 28  1  0  0  0
 28 29  1  0  0  0
 28 30  2  0  0  0
  4  5  2  0  0  0
  5  6  1  0  0  0
  6  7  1  0  0  0
  7  8  2  0  0  0
  8  9  1  0  0  0
  9 15  1  0  0  0
 15 16  1  0  0  0
  9 10  2  0  0  0
 10 17  1  0  0  0
 17 18  1  0  0  0
 10 11  1  0  0  0
 11 12  2  0  0  0
 11 13  1  0  0  0
  6  1  2  0  0  0
 13  7  1  0  0  0
 27 23  1  0  0  0
 19 22  1  0  0  0
 13 14  1  0  0  0
M  END
> <minimizedAffinity>
-1.34424

$$$$



 34 36  0  0  0  0  0  0  0  0999 V2000
    0.4250   64.1758   82.7903 C   0  0  0  0  0  0  0  0  0  0  0  0
    1.0876   65.1119   83.5929 C   0  0  0  0  0  0  0  0  0  0  0  0
    1.5136   66.3405   83.0714 C   0  0  0  0  0  0  0  0  0  0  0  0
    1.2866   66.6616   81.7376 C   0  0  0  0  0  0  0  0  0  0  0  0
    0.6226   65.7323   80.9310 C   0  0  0  0  0  0  0  0  0  0  0  0
    0.1845   64.4914   81.4377 C   0  0  0  0  0  0  0  0  0  0  0  0
   -0.5192   63.5836   80.4685 C   0  0  0  0  0  0  0  0  0  0  0  0
   -1.5915   62.9455   80.8190 N   0  0  0  0  0  0  0  0  0  0  0  0
   -2.2116   62.1231   79.9014 C   0  0  0  0  0  0  0  0  0  0  0  0
   -1.7658   61.9307   78.6420 C   0  0  0  0  0  0  0  0  0  0  0  0
   -0.5394   62.6715   78.2488 C   0  0  0  0  0  0  0  0  0  0  0  0
   -0.0491   62.5929   77.1270 O   0  0  0  0  0  0  0  0  0  0  0  0
    0.0102   63.4526   79.2157 N   0  0  0  0  0  0  0  0  0  0  0  0
    0.8433   63.9664   78.9598 H   0  0  0  0  0  0  0  0  0  0  0  0
   -3.4516   61.4511   80.4610 C   0  0  0  0  0  0  0  0  0  0  0  0
   -3.1189   60.1421   81.1658 C   0  0  0  0  0  0  0  0  0  0  0  0
   -2.3601   61.0376   77.5858 C   0  0  0  0  0  0  0  0  0  0  0  0
   -1.8033   59.6229   77.6563 C   0  0  0  0  0  0  0  0  0  0  0  0
    1.6830   67.8725   81.1322 N   0  0  0  0  0  0  0  0  0  0  0  0
    2.0794   69.0446   81.7658 C   0  0  0  0  0  0  0  0  0  0  0  0
    2.1485   69.2154   82.9786 O   0  0  0  0  0  0  0  0  0  0  0  0
    1.6705   67.8779   80.1189 H   0  0  0  0  0  0  0  0  0  0  0  0
    2.4496   70.1546   80.7542 C   0  0  0  0  0  0  0  0  0  0  0  0
    3.9795   70.3029   80.7057 C   0  0  0  0  0  0  0  0  0  0  0  0
    4.2042   71.7966   80.5163 C   0  0  0  0  0  0  0  0  0  0  0  0
    3.0686   72.4151   81.3111 C   0  0  0  0  0  0  0  0  0  0  0  0
    1.9678   71.4921   81.1141 N   0  0  0  0  0  0  0  0  0  0  0  0
    0.6657   71.9409   81.1081 C   0  0  0  0  0  0  0  0  0  0  0  0
   -0.4164   70.9321   80.8174 C   0  0  0  0  0  0  0  0  0  0  0  0
    0.3746   73.1163   81.3329 O   0  0  0  0  0  0  0  0  0  0  0  0
   -0.0079   62.9588   83.2510 O   0  0  0  0  0  0  0  0  0  0  0  0
   -0.0604   62.7471   84.6641 C   0  0  0  0  0  0  0  0  0  0  0  0
   -1.6725   62.3107   86.5706 C   0  0  0  0  0  0  0  0  0  0  0  0
   -1.5164   62.5305   85.0722 C   0  0  0  0  0  0  0  0  0  0  0  0
 33 34  1  0  0  0
 34 32  1  0  0  0
 32 31  1  0  0  0
 31  1  1  0  0  0
  1  2  1  0  0  0
  2  3  2  0  0  0
  3  4  1  0  0  0
  4 19  1  0  0  0
 19 20  1  0  0  0
 20 21  2  0  0  0
 20 23  1  0  0  0
 23 24  1  0  0  0
 24 25  1  0  0  0
 25 26  1  0  0  0
 26 27  1  0  0  0
 27 28  1  0  0  0
 28 29  1  0  0  0
 28 30  2  0  0  0
  4  5  2  0  0  0
  5  6  1  0  0  0
  6  7  1  0  0  0
  7  8  2  0  0  0
  8  9  1  0  0  0
  9 15  1  0  0  0
 15 16  1  0  0  0
  9 10  2  0  0  0
 10 17  1  0  0  0
 17 18  1  0  0  0
 10 11  1  0  0  0
 11 12  2  0  0  0
 11 13  1  0  0  0
  6  1  2  0  0  0
 13  7  1  0  0  0
 27 23  1  0  0  0
 19 22  1  0  0  0
 13 14  1  0  0  0
M  END
> <minimizedAffinity>
-1.34056

$$$$



 34 36  0  0  0  0  0  0  0  0999 V2000
    2.8085   74.7913   81.5508 C   0  0  0  0  0  0  0  0  0  0  0  0
    1.6894   74.0897   82.0142 C   0  0  0  0  0  0  0  0  0  0  0  0
    1.6109   72.6954   81.9016 C   0  0  0  0  0  0  0  0  0  0  0  0
    2.6483   71.9712   81.3248 C   0  0  0  0  0  0  0  0  0  0  0  0
    3.7705   72.6654   80.8624 C   0  0  0  0  0  0  0  0  0  0  0  0
    3.8691   74.0681   80.9683 C   0  0  0  0  0  0  0  0  0  0  0  0
    5.1282   74.6926   80.4363 C   0  0  0  0  0  0  0  0  0  0  0  0
    6.0801   75.0502   81.2401 N   0  0  0  0  0  0  0  0  0  0  0  0
    7.2223   75.6178   80.7149 C   0  0  0  0  0  0  0  0  0  0  0  0
    7.4168   75.8346   79.3970 C   0  0  0  0  0  0  0  0  0  0  0  0
    6.3221   75.4157   78.4840 C   0  0  0  0  0  0  0  0  0  0  0  0
    6.3899   75.5440   77.2658 O   0  0  0  0  0  0  0  0  0  0  0  0
    5.2311   74.8727   79.0857 N   0  0  0  0  0  0  0  0  0  0  0  0
    4.4799   74.5787   78.4752 H   0  0  0  0  0  0  0  0  0  0  0  0
    8.2406   75.9782   81.7806 C   0  0  0  0  0  0  0  0  0  0  0  0
    7.5745   76.3543   83.0981 C   0  0  0  0  0  0  0  0  0  0  0  0
    8.6139   76.4677   78.7392 C   0  0  0  0  0  0  0  0  0  0  0  0
    8.4839   77.9819   78.6556 C   0  0  0  0  0  0  0  0  0  0  0  0
    2.6500   70.5690   81.1705 N   0  0  0  0  0  0  0  0  0  0  0  0
    1.6264   69.6824   81.4846 C   0  0  0  0  0  0  0  0  0  0  0  0
    0.5355   69.9858   81.9565 O   0  0  0  0  0  0  0  0  0  0  0  0
    3.5014   70.1734   80.7889 H   0  0  0  0  0  0  0  0  0  0  0  0
    2.0062   68.2187   81.1598 C   0  0  0  0  0  0  0  0  0  0  0  0
    1.0983   67.7005   80.0320 C   0  0  0  0  0  0  0  0  0  0  0  0
    0.8592   66.2394   80.3863 C   0  0  0  0  0  0  0  0  0  0  0  0
    0.8181   66.2595   81.9035 C   0  0  0  0  0  0  0  0  0  0  0  0
    1.7899   67.2746   82.2609 N   0  0  0  0  0  0  0  0  0  0  0  0
    2.5028   67.1836   83.4359 C   0  0  0  0  0  0  0  0  0  0  0  0
    3.5510   68.2355   83.6967 C   0  0  0  0  0  0  0  0  0  0  0  0
    2.3044   66.2875   84.2571 O   0  0  0  0  0  0  0  0  0  0  0  0
    2.9321   76.1546   81.6335 O   0  0  0  0  0  0  0  0  0  0  0  0
    2.0414   76.8661   82.4967 C   0  0  0  0  0  0  0  0  0  0  0  0
    2.4002   78.1453   84.6552 C   0  0  0  0  0  0  0  0  0  0  0  0
    2.8243   77.9710   83.2034 C   0  0  0  0  0  0  0  0  0  0  0  0
 33 34  1  0  0  0
 34 32  1  0  0  0
 32 31  1  0  0  0
 31  1  1  0  0  0
  1  2  1  0  0  0
  2  3  2  0  0  0
  3  4  1  0  0  0
  4 19  1  0  0  0
 19 20  1  0  0  0
 20 21  2  0  0  0
 20 23  1  0  0  0
 23 24  1  0  0  0
 24 25  1  0  0  0
 25 26  1  0  0  0
 26 27  1  0  0  0
 27 28  1  0  0  0
 28 29  1  0  0  0
 28 30  2  0  0  0
  4  5  2  0  0  0
  5  6  1  0  0  0
  6  7  1  0  0  0
  7  8  2  0  0  0
  8  9  1  0  0  0
  9 15  1  0  0  0
 15 16  1  0  0  0
  9 10  2  0  0  0
 10 17  1  0  0  0
 17 18  1  0  0  0
 10 11  1  0  0  0
 11 12  2  0  0  0
 11 13  1  0  0  0
  6  1  2  0  0  0
 13  7  1  0  0  0
 27 23  1  0  0  0
 19 22  1  0  0  0
 13 14  1  0  0  0
M  END
> <minimizedAffinity>
-1.28787

$$$$



 34 36  0  0  0  0  0  0  0  0999 V2000
    1.8262   74.9041   81.3462 C   0  0  0  0  0  0  0  0  0  0  0  0
    0.7097   74.0704   81.2125 C   0  0  0  0  0  0  0  0  0  0  0  0
    0.8512   72.6797   81.1193 C   0  0  0  0  0  0  0  0  0  0  0  0
    2.1104   72.0909   81.1586 C   0  0  0  0  0  0  0  0  0  0  0  0
    3.2298   72.9176   81.2951 C   0  0  0  0  0  0  0  0  0  0  0  0
    3.1079   74.3191   81.3922 C   0  0  0  0  0  0  0  0  0  0  0  0
    4.3874   75.0936   81.5387 C   0  0  0  0  0  0  0  0  0  0  0  0
    4.6543   75.7286   82.6367 N   0  0  0  0  0  0  0  0  0  0  0  0
    5.8400   76.4266   82.7354 C   0  0  0  0  0  0  0  0  0  0  0  0
    6.7551   76.4984   81.7458 C   0  0  0  0  0  0  0  0  0  0  0  0
    6.4419   75.7622   80.4939 C   0  0  0  0  0  0  0  0  0  0  0  0
    7.2031   75.7371   79.5320 O   0  0  0  0  0  0  0  0  0  0  0  0
    5.2507   75.1080   80.4797 N   0  0  0  0  0  0  0  0  0  0  0  0
    5.0270   74.5986   79.6348 H   0  0  0  0  0  0  0  0  0  0  0  0
    6.0062   77.1119   84.0790 C   0  0  0  0  0  0  0  0  0  0  0  0
    4.6635   77.4090   84.7347 C   0  0  0  0  0  0  0  0  0  0  0  0
    8.0579   77.2528   81.7552 C   0  0  0  0  0  0  0  0  0  0  0  0
    9.1905   76.4269   82.3482 C   0  0  0  0  0  0  0  0  0  0  0  0
    2.3425   70.7024   81.0695 N   0  0  0  0  0  0  0  0  0  0  0  0
    1.4786   69.6756   81.4323 C   0  0  0  0  0  0  0  0  0  0  0  0
    0.3527   69.8175   81.8982 O   0  0  0  0  0  0  0  0  0  0  0  0
    3.2473   70.4344   80.7000 H   0  0  0  0  0  0  0  0  0  0  0  0
    2.0938   68.2804   81.1728 C   0  0  0  0  0  0  0  0  0  0  0  0
    1.3406   67.6045   80.0149 C   0  0  0  0  0  0  0  0  0  0  0  0
    1.3061   66.1323   80.4005 C   0  0  0  0  0  0  0  0  0  0  0  0
    1.1762   66.1793   81.9120 C   0  0  0  0  0  0  0  0  0  0  0  0
    1.9610   67.3388   82.2892 N   0  0  0  0  0  0  0  0  0  0  0  0
    2.6114   67.3839   83.5024 C   0  0  0  0  0  0  0  0  0  0  0  0
    3.4714   68.5894   83.7861 C   0  0  0  0  0  0  0  0  0  0  0  0
    2.5048   66.4865   84.3390 O   0  0  0  0  0  0  0  0  0  0  0  0
    1.7417   76.2699   81.4369 O   0  0  0  0  0  0  0  0  0  0  0  0
    0.4621   76.8558   81.6900 C   0  0  0  0  0  0  0  0  0  0  0  0
   -0.3348   78.6463   83.2972 C   0  0  0  0  0  0  0  0  0  0  0  0
    0.4219   77.3345   83.1400 C   0  0  0  0  0  0  0  0  0  0  0  0
 33 34  1  0  0  0
 34 32  1  0  0  0
 32 31  1  0  0  0
 31  1  1  0  0  0
  1  2  1  0  0  0
  2  3  2  0  0  0
  3  4  1  0  0  0
  4 19  1  0  0  0
 19 20  1  0  0  0
 20 21  2  0  0  0
 20 23  1  0  0  0
 23 24  1  0  0  0
 24 25  1  0  0  0
 25 26  1  0  0  0
 26 27  1  0  0  0
 27 28  1  0  0  0
 28 29  1  0  0  0
 28 30  2  0  0  0
  4  5  2  0  0  0
  5  6  1  0  0  0
  6  7  1  0  0  0
  7  8  2  0  0  0
  8  9  1  0  0  0
  9 15  1  0  0  0
 15 16  1  0  0  0
  9 10  2  0  0  0
 10 17  1  0  0  0
 17 18  1  0  0  0
 10 11  1  0  0  0
 11 12  2  0  0  0
 11 13  1  0  0  0
  6  1  2  0  0  0
 13  7  1  0  0  0
 27 23  1  0  0  0
 19 22  1  0  0  0
 13 14  1  0  0  0
M  END
> <minimizedAffinity>
-1.26138

$$$$



 34 36  0  0  0  0  0  0  0  0999 V2000
    0.4105   64.0512   84.5417 C   0  0  0  0  0  0  0  0  0  0  0  0
   -0.1989   62.7925   84.6021 C   0  0  0  0  0  0  0  0  0  0  0  0
   -0.4116   62.0344   83.4433 C   0  0  0  0  0  0  0  0  0  0  0  0
   -0.0197   62.5159   82.1991 C   0  0  0  0  0  0  0  0  0  0  0  0
    0.5924   63.7713   82.1318 C   0  0  0  0  0  0  0  0  0  0  0  0
    0.8168   64.5486   83.2868 C   0  0  0  0  0  0  0  0  0  0  0  0
    1.4862   65.8780   83.0792 C   0  0  0  0  0  0  0  0  0  0  0  0
    2.4312   66.2740   83.8730 N   0  0  0  0  0  0  0  0  0  0  0  0
    3.0241   67.4992   83.6495 C   0  0  0  0  0  0  0  0  0  0  0  0
    2.6766   68.3308   82.6449 C   0  0  0  0  0  0  0  0  0  0  0  0
    1.5965   67.8647   81.7374 C   0  0  0  0  0  0  0  0  0  0  0  0
    1.2067   68.5232   80.7785 O   0  0  0  0  0  0  0  0  0  0  0  0
    1.0633   66.6504   82.0344 N   0  0  0  0  0  0  0  0  0  0  0  0
    0.3299   66.3187   81.4216 H   0  0  0  0  0  0  0  0  0  0  0  0
    4.1109   67.8169   84.6597 C   0  0  0  0  0  0  0  0  0  0  0  0
    4.7333   66.5534   85.2404 C   0  0  0  0  0  0  0  0  0  0  0  0
    3.2480   69.6901   82.3411 C   0  0  0  0  0  0  0  0  0  0  0  0
    2.3141   70.8109   82.7748 C   0  0  0  0  0  0  0  0  0  0  0  0
   -0.1974   61.8204   80.9848 N   0  0  0  0  0  0  0  0  0  0  0  0
   -1.1503   62.0640   80.0024 C   0  0  0  0  0  0  0  0  0  0  0  0
   -2.0068   62.9416   80.0370 O   0  0  0  0  0  0  0  0  0  0  0  0
    0.4472   61.0556   80.8220 H   0  0  0  0  0  0  0  0  0  0  0  0
   -1.0157   61.0896   78.8088 C   0  0  0  0  0  0  0  0  0  0  0  0
   -0.1948   61.7643   77.6971 C   0  0  0  0  0  0  0  0  0  0  0  0
   -0.8365   61.2717   76.4075 C   0  0  0  0  0  0  0  0  0  0  0  0
   -2.3054   61.1696   76.7758 C   0  0  0  0  0  0  0  0  0  0  0  0
   -2.2842   60.7411   78.1609 N   0  0  0  0  0  0  0  0  0  0  0  0
   -3.2943   59.9551   78.6699 C   0  0  0  0  0  0  0  0  0  0  0  0
   -3.1585   59.4854   80.0961 C   0  0  0  0  0  0  0  0  0  0  0  0
   -4.2809   59.6400   78.0036 O   0  0  0  0  0  0  0  0  0  0  0  0
    0.6372   64.8338   85.6449 O   0  0  0  0  0  0  0  0  0  0  0  0
    0.9904   64.1910   86.8724 C   0  0  0  0  0  0  0  0  0  0  0  0
   -0.3094   62.6886   88.4463 C   0  0  0  0  0  0  0  0  0  0  0  0
   -0.2710   64.0249   87.7177 C   0  0  0  0  0  0  0  0  0  0  0  0
 33 34  1  0  0  0
 34 32  1  0  0  0
 32 31  1  0  0  0
 31  1  1  0  0  0
  1  2  1  0  0  0
  2  3  2  0  0  0
  3  4  1  0  0  0
  4 19  1  0  0  0
 19 20  1  0  0  0
 20 21  2  0  0  0
 20 23  1  0  0  0
 23 24  1  0  0  0
 24 25  1  0  0  0
 25 26  1  0  0  0
 26 27  1  0  0  0
 27 28  1  0  0  0
 28 29  1  0  0  0
 28 30  2  0  0  0
  4  5  2  0  0  0
  5  6  1  0  0  0
  6  7  1  0  0  0
  7  8  2  0  0  0
  8  9  1  0  0  0
  9 15  1  0  0  0
 15 16  1  0  0  0
  9 10  2  0  0  0
 10 17  1  0  0  0
 17 18  1  0  0  0
 10 11  1  0  0  0
 11 12  2  0  0  0
 11 13  1  0  0  0
  6  1  2  0  0  0
 13  7  1  0  0  0
 27 23  1  0  0  0
 19 22  1  0  0  0
 13 14  1  0  0  0
M  END
> <minimizedAffinity>
-1.25452

$$$$



 34 36  0  0  0  0  0  0  0  0999 V2000
    1.7934   75.0802   82.0612 C   0  0  0  0  0  0  0  0  0  0  0  0
    2.5852   74.3415   82.9482 C   0  0  0  0  0  0  0  0  0  0  0  0
    2.8049   72.9715   82.7542 C   0  0  0  0  0  0  0  0  0  0  0  0
    2.2397   72.3093   81.6700 C   0  0  0  0  0  0  0  0  0  0  0  0
    1.4501   73.0418   80.7782 C   0  0  0  0  0  0  0  0  0  0  0  0
    1.2187   74.4215   80.9553 C   0  0  0  0  0  0  0  0  0  0  0  0
    0.3549   75.0928   79.9250 C   0  0  0  0  0  0  0  0  0  0  0  0
    0.8631   75.9402   79.0861 N   0  0  0  0  0  0  0  0  0  0  0  0
    0.0395   76.5345   78.1527 C   0  0  0  0  0  0  0  0  0  0  0  0
   -1.2848   76.2927   78.0558 C   0  0  0  0  0  0  0  0  0  0  0  0
   -1.8560   75.3155   79.0183 C   0  0  0  0  0  0  0  0  0  0  0  0
   -3.0415   75.0000   79.0170 O   0  0  0  0  0  0  0  0  0  0  0  0
   -0.9760   74.7838   79.9070 N   0  0  0  0  0  0  0  0  0  0  0  0
   -1.3508   74.1132   80.5653 H   0  0  0  0  0  0  0  0  0  0  0  0
    0.7822   77.4967   77.2444 C   0  0  0  0  0  0  0  0  0  0  0  0
    1.9112   78.2115   77.9762 C   0  0  0  0  0  0  0  0  0  0  0  0
   -2.2611   76.9106   77.0906 C   0  0  0  0  0  0  0  0  0  0  0  0
   -2.8967   78.1740   77.6531 C   0  0  0  0  0  0  0  0  0  0  0  0
    2.4077   70.9347   81.4016 N   0  0  0  0  0  0  0  0  0  0  0  0
    1.4803   69.9167   81.5907 C   0  0  0  0  0  0  0  0  0  0  0  0
    0.3438   70.0555   82.0310 O   0  0  0  0  0  0  0  0  0  0  0  0
    3.3134   70.6702   81.0317 H   0  0  0  0  0  0  0  0  0  0  0  0
    2.0374   68.5376   81.1663 C   0  0  0  0  0  0  0  0  0  0  0  0
    1.2062   67.9980   79.9903 C   0  0  0  0  0  0  0  0  0  0  0  0
    1.1447   66.4966   80.2341 C   0  0  0  0  0  0  0  0  0  0  0  0
    1.0923   66.3995   81.7479 C   0  0  0  0  0  0  0  0  0  0  0  0
    1.9310   67.4956   82.1926 N   0  0  0  0  0  0  0  0  0  0  0  0
    2.6425   67.4050   83.3684 C   0  0  0  0  0  0  0  0  0  0  0  0
    3.5533   68.5538   83.7206 C   0  0  0  0  0  0  0  0  0  0  0  0
    2.5498   66.4334   84.1195 O   0  0  0  0  0  0  0  0  0  0  0  0
    1.5444   76.4207   82.2087 O   0  0  0  0  0  0  0  0  0  0  0  0
    1.8150   77.0262   83.4755 C   0  0  0  0  0  0  0  0  0  0  0  0
    0.0190   78.6652   84.1913 C   0  0  0  0  0  0  0  0  0  0  0  0
    1.3288   78.4739   83.4391 C   0  0  0  0  0  0  0  0  0  0  0  0
 33 34  1  0  0  0
 34 32  1  0  0  0
 32 31  1  0  0  0
 31  1  1  0  0  0
  1  2  1  0  0  0
  2  3  2  0  0  0
  3  4  1  0  0  0
  4 19  1  0  0  0
 19 20  1  0  0  0
 20 21  2  0  0  0
 20 23  1  0  0  0
 23 24  1  0  0  0
 24 25  1  0  0  0
 25 26  1  0  0  0
 26 27  1  0  0  0
 27 28  1  0  0  0
 28 29  1  0  0  0
 28 30  2  0  0  0
  4  5  2  0  0  0
  5  6  1  0  0  0
  6  7  1  0  0  0
  7  8  2  0  0  0
  8  9  1  0  0  0
  9 15  1  0  0  0
 15 16  1  0  0  0
  9 10  2  0  0  0
 10 17  1  0  0  0
 17 18  1  0  0  0
 10 11  1  0  0  0
 11 12  2  0  0  0
 11 13  1  0  0  0
  6  1  2  0  0  0
 13  7  1  0  0  0
 27 23  1  0  0  0
 19 22  1  0  0  0
 13 14  1  0  0  0
M  END
> <minimizedAffinity>
-1.24023

$$$$



 34 36  0  0  0  0  0  0  0  0999 V2000
    0.5350   64.3236   83.1800 C   0  0  0  0  0  0  0  0  0  0  0  0
    1.2407   65.2820   83.9169 C   0  0  0  0  0  0  0  0  0  0  0  0
    1.6592   66.4832   83.3297 C   0  0  0  0  0  0  0  0  0  0  0  0
    1.3816   66.7541   81.9944 C   0  0  0  0  0  0  0  0  0  0  0  0
    0.6744   65.8023   81.2532 C   0  0  0  0  0  0  0  0  0  0  0  0
    0.2431   64.5884   81.8266 C   0  0  0  0  0  0  0  0  0  0  0  0
   -0.5101   63.6523   80.9240 C   0  0  0  0  0  0  0  0  0  0  0  0
   -0.2507   63.6051   79.6549 N   0  0  0  0  0  0  0  0  0  0  0  0
   -0.9609   62.7313   78.8582 C   0  0  0  0  0  0  0  0  0  0  0  0
   -1.9289   61.9110   79.3185 C   0  0  0  0  0  0  0  0  0  0  0  0
   -2.2141   61.9688   80.7755 C   0  0  0  0  0  0  0  0  0  0  0  0
   -3.0577   61.2592   81.3140 O   0  0  0  0  0  0  0  0  0  0  0  0
   -1.4738   62.8617   81.4838 N   0  0  0  0  0  0  0  0  0  0  0  0
   -1.6546   62.9080   82.4781 H   0  0  0  0  0  0  0  0  0  0  0  0
   -0.5399   62.7927   77.4016 C   0  0  0  0  0  0  0  0  0  0  0  0
   -0.7781   64.1717   76.7994 C   0  0  0  0  0  0  0  0  0  0  0  0
   -2.7691   60.9480   78.5229 C   0  0  0  0  0  0  0  0  0  0  0  0
   -2.0521   59.6263   78.2871 C   0  0  0  0  0  0  0  0  0  0  0  0
    1.7669   67.9347   81.3253 N   0  0  0  0  0  0  0  0  0  0  0  0
    2.1493   69.1434   81.8954 C   0  0  0  0  0  0  0  0  0  0  0  0
    2.2132   69.3802   83.0974 O   0  0  0  0  0  0  0  0  0  0  0  0
    1.7572   67.8852   80.3131 H   0  0  0  0  0  0  0  0  0  0  0  0
    2.5105   70.2010   80.8262 C   0  0  0  0  0  0  0  0  0  0  0  0
    4.0386   70.3666   80.7767 C   0  0  0  0  0  0  0  0  0  0  0  0
    4.2451   71.8505   80.5066 C   0  0  0  0  0  0  0  0  0  0  0  0
    3.0973   72.4966   81.2609 C   0  0  0  0  0  0  0  0  0  0  0  0
    2.0096   71.5497   81.1098 N   0  0  0  0  0  0  0  0  0  0  0  0
    0.7018   71.9804   81.0730 C   0  0  0  0  0  0  0  0  0  0  0  0
   -0.3656   70.9429   80.8331 C   0  0  0  0  0  0  0  0  0  0  0  0
    0.3944   73.1623   81.2316 O   0  0  0  0  0  0  0  0  0  0  0  0
    0.1072   63.1316   83.7063 O   0  0  0  0  0  0  0  0  0  0  0  0
   -0.0123   63.0205   85.1269 C   0  0  0  0  0  0  0  0  0  0  0  0
   -1.6177   62.3091   86.9547 C   0  0  0  0  0  0  0  0  0  0  0  0
   -1.3638   62.3890   85.4557 C   0  0  0  0  0  0  0  0  0  0  0  0
 33 34  1  0  0  0
 34 32  1  0  0  0
 32 31  1  0  0  0
 31  1  1  0  0  0
  1  2  1  0  0  0
  2  3  2  0  0  0
  3  4  1  0  0  0
  4 19  1  0  0  0
 19 20  1  0  0  0
 20 21  2  0  0  0
 20 23  1  0  0  0
 23 24  1  0  0  0
 24 25  1  0  0  0
 25 26  1  0  0  0
 26 27  1  0  0  0
 27 28  1  0  0  0
 28 29  1  0  0  0
 28 30  2  0  0  0
  4  5  2  0  0  0
  5  6  1  0  0  0
  6  7  1  0  0  0
  7  8  2  0  0  0
  8  9  1  0  0  0
  9 15  1  0  0  0
 15 16  1  0  0  0
  9 10  2  0  0  0
 10 17  1  0  0  0
 17 18  1  0  0  0
 10 11  1  0  0  0
 11 12  2  0  0  0
 11 13  1  0  0  0
  6  1  2  0  0  0
 13  7  1  0  0  0
 27 23  1  0  0  0
 19 22  1  0  0  0
 13 14  1  0  0  0
M  END
> <minimizedAffinity>
-1.23820

$$$$



 34 36  0  0  0  0  0  0  0  0999 V2000
    1.8360   75.1771   80.6235 C   0  0  0  0  0  0  0  0  0  0  0  0
    0.6024   74.5396   80.4466 C   0  0  0  0  0  0  0  0  0  0  0  0
    0.3863   73.2372   80.9154 C   0  0  0  0  0  0  0  0  0  0  0  0
    1.3967   72.5432   81.5718 C   0  0  0  0  0  0  0  0  0  0  0  0
    2.6306   73.1751   81.7547 C   0  0  0  0  0  0  0  0  0  0  0  0
    2.8669   74.4860   81.2918 C   0  0  0  0  0  0  0  0  0  0  0  0
    4.2341   75.0520   81.5542 C   0  0  0  0  0  0  0  0  0  0  0  0
    5.1993   74.8694   80.7086 N   0  0  0  0  0  0  0  0  0  0  0  0
    6.4401   75.4064   80.9823 C   0  0  0  0  0  0  0  0  0  0  0  0
    6.7232   76.1177   82.0939 C   0  0  0  0  0  0  0  0  0  0  0  0
    5.6082   76.3261   83.0536 C   0  0  0  0  0  0  0  0  0  0  0  0
    5.7376   76.9707   84.0894 O   0  0  0  0  0  0  0  0  0  0  0  0
    4.4230   75.7571   82.7093 N   0  0  0  0  0  0  0  0  0  0  0  0
    3.6539   75.8953   83.3518 H   0  0  0  0  0  0  0  0  0  0  0  0
    7.4593   75.1083   79.8984 C   0  0  0  0  0  0  0  0  0  0  0  0
    6.7992   74.6023   78.6220 C   0  0  0  0  0  0  0  0  0  0  0  0
    8.0474   76.7170   82.4860 C   0  0  0  0  0  0  0  0  0  0  0  0
    8.2268   78.1200   81.9240 C   0  0  0  0  0  0  0  0  0  0  0  0
    1.2649   71.2311   82.0728 N   0  0  0  0  0  0  0  0  0  0  0  0
    1.8415   70.0713   81.5681 C   0  0  0  0  0  0  0  0  0  0  0  0
    2.5721   70.0036   80.5850 O   0  0  0  0  0  0  0  0  0  0  0  0
    0.6778   71.1345   82.8932 H   0  0  0  0  0  0  0  0  0  0  0  0
    1.4665   68.8252   82.4042 C   0  0  0  0  0  0  0  0  0  0  0  0
    2.5009   68.6416   83.5273 C   0  0  0  0  0  0  0  0  0  0  0  0
    2.6490   67.1319   83.6556 C   0  0  0  0  0  0  0  0  0  0  0  0
    2.4891   66.6515   82.2247 C   0  0  0  0  0  0  0  0  0  0  0  0
    1.5078   67.5600   81.6640 N   0  0  0  0  0  0  0  0  0  0  0  0
    0.6431   67.1403   80.6775 C   0  0  0  0  0  0  0  0  0  0  0  0
   -0.4000   68.1205   80.2038 C   0  0  0  0  0  0  0  0  0  0  0  0
    0.7051   66.0132   80.1851 O   0  0  0  0  0  0  0  0  0  0  0  0
    2.0993   76.4478   80.1801 O   0  0  0  0  0  0  0  0  0  0  0  0
    1.0024   77.2576   79.7491 C   0  0  0  0  0  0  0  0  0  0  0  0
    0.0263   78.3022   77.6562 C   0  0  0  0  0  0  0  0  0  0  0  0
    1.2668   77.7161   78.3162 C   0  0  0  0  0  0  0  0  0  0  0  0
 33 34  1  0  0  0
 34 32  1  0  0  0
 32 31  1  0  0  0
 31  1  1  0  0  0
  1  2  1  0  0  0
  2  3  2  0  0  0
  3  4  1  0  0  0
  4 19  1  0  0  0
 19 20  1  0  0  0
 20 21  2  0  0  0
 20 23  1  0  0  0
 23 24  1  0  0  0
 24 25  1  0  0  0
 25 26  1  0  0  0
 26 27  1  0  0  0
 27 28  1  0  0  0
 28 29  1  0  0  0
 28 30  2  0  0  0
  4  5  2  0  0  0
  5  6  1  0  0  0
  6  7  1  0  0  0
  7  8  2  0  0  0
  8  9  1  0  0  0
  9 15  1  0  0  0
 15 16  1  0  0  0
  9 10  2  0  0  0
 10 17  1  0  0  0
 17 18  1  0  0  0
 10 11  1  0  0  0
 11 12  2  0  0  0
 11 13  1  0  0  0
  6  1  2  0  0  0
 13  7  1  0  0  0
 27 23  1  0  0  0
 19 22  1  0  0  0
 13 14  1  0  0  0
M  END
> <minimizedAffinity>
-1.20252

$$$$
