


 35 37  0  0  0  0  0  0  0  0999 V2000
    5.8165   67.1558   85.1266 C   0  0  0  0  0  0  0  0  0  0  0  0
    5.2730   68.0372   84.1887 C   0  0  0  0  0  0  0  0  0  0  0  0
    4.0164   67.8001   83.6015 C   0  0  0  0  0  0  0  0  0  0  0  0
    3.5088   68.6998   82.6569 C   0  0  0  0  0  0  0  0  0  0  0  0
    2.2670   68.5011   82.0351 C   0  0  0  0  0  0  0  0  0  0  0  0
    1.4827   67.3815   82.3912 C   0  0  0  0  0  0  0  0  0  0  0  0
    1.9905   66.4433   83.3355 C   0  0  0  0  0  0  0  0  0  0  0  0
    3.2684   66.6564   83.9508 C   0  0  0  0  0  0  0  0  0  0  0  0
    3.8431   65.7740   84.9016 C   0  0  0  0  0  0  0  0  0  0  0  0
    5.0920   66.0121   85.4899 C   0  0  0  0  0  0  0  0  0  0  0  0
    1.2061   65.2337   83.6672 C   0  0  0  0  0  0  0  0  0  0  0  0
    0.6915   65.0456   84.9595 C   0  0  0  0  0  0  0  0  0  0  0  0
   -0.0427   63.9019   85.2705 C   0  0  0  0  0  0  0  0  0  0  0  0
   -0.2808   62.9358   84.2694 C   0  0  0  0  0  0  0  0  0  0  0  0
    0.2542   63.0911   82.9776 C   0  0  0  0  0  0  0  0  0  0  0  0
    0.9815   64.2498   82.6883 C   0  0  0  0  0  0  0  0  0  0  0  0
   -0.5765   63.6382   86.5527 N   0  0  0  0  0  0  0  0  0  0  0  0
    0.0890   63.5657   87.7573 C   0  0  0  0  0  0  0  0  0  0  0  0
   -0.8316   63.2381   88.9062 C   0  0  0  0  0  0  0  0  0  0  0  0
    1.2832   63.7663   87.9489 O   0  0  0  0  0  0  0  0  0  0  0  0
   -1.5827   63.4973   86.5493 H   0  0  0  0  0  0  0  0  0  0  0  0
   -1.0083   61.8338   84.6766 O   0  0  0  0  0  0  0  0  0  0  0  0
   -2.3823   61.8749   84.2938 C   0  0  0  0  0  0  0  0  0  0  0  0
    0.0420   62.0763   82.0821 O   0  0  0  0  0  0  0  0  0  0  0  0
    1.1069   61.1607   81.8558 C   0  0  0  0  0  0  0  0  0  0  0  0
    1.8001   69.5241   81.0271 C   0  0  0  0  0  0  0  0  0  0  0  0
    2.1232   69.1022   79.7081 O   0  0  0  0  0  0  0  0  0  0  0  0
    2.2535   68.1383   79.7306 H   0  0  0  0  0  0  0  0  0  0  0  0
    0.1345   67.1692   81.7346 C   0  0  0  0  0  0  0  0  0  0  0  0
    0.3429   66.6942   80.4109 O   0  0  0  0  0  0  0  0  0  0  0  0
   -0.5401   66.5852   80.0201 H   0  0  0  0  0  0  0  0  0  0  0  0
    8.1982   66.9828   84.9987 C   0  0  0  0  0  0  0  0  0  0  0  0
    7.0342   67.3214   85.7378 O   0  0  0  0  0  0  0  0  0  0  0  0
    5.6855   65.1866   86.4130 O   0  0  0  0  0  0  0  0  0  0  0  0
    5.1291   65.1507   87.7196 C   0  0  0  0  0  0  0  0  0  0  0  0
 32 33  1  0  0  0
 33  1  1  0  0  0
  1  2  1  0  0  0
  2  3  2  0  0  0
  3  4  1  0  0  0
  4  5  2  0  0  0
  5 26  1  0  0  0
 26 27  1  0  0  0
  5  6  1  0  0  0
  6 29  1  0  0  0
 29 30  1  0  0  0
  6  7  2  0  0  0
  7 11  1  0  0  0
 11 12  2  0  0  0
 12 13  1  0  0  0
 13 17  1  0  0  0
 17 18  1  0  0  0
 18 19  1  0  0  0
 18 20  2  0  0  0
 13 14  2  0  0  0
 14 22  1  0  0  0
 22 23  1  0  0  0
 14 15  1  0  0  0
 15 24  1  0  0  0
 24 25  1  0  0  0
 15 16  2  0  0  0
  7  8  1  0  0  0
  8  9  2  0  0  0
  9 10  1  0  0  0
 10 34  1  0  0  0
 34 35  1  0  0  0
 10  1  2  0  0  0
  8  3  1  0  0  0
 16 11  1  0  0  0
 27 28  1  0  0  0
 30 31  1  0  0  0
 17 21  1  0  0  0
M  END
> <minimizedAffinity>
-9.58009

$$$$



 35 37  0  0  0  0  0  0  0  0999 V2000
   -1.2783   62.9381   81.0366 C   0  0  0  0  0  0  0  0  0  0  0  0
   -1.8094   62.5661   82.2741 C   0  0  0  0  0  0  0  0  0  0  0  0
   -1.2718   63.0538   83.4796 C   0  0  0  0  0  0  0  0  0  0  0  0
   -1.8232   62.6500   84.7012 C   0  0  0  0  0  0  0  0  0  0  0  0
   -1.3151   63.0990   85.9293 C   0  0  0  0  0  0  0  0  0  0  0  0
   -0.2377   64.0124   85.9436 C   0  0  0  0  0  0  0  0  0  0  0  0
    0.3506   64.4197   84.7116 C   0  0  0  0  0  0  0  0  0  0  0  0
   -0.1740   63.9395   83.4662 C   0  0  0  0  0  0  0  0  0  0  0  0
    0.3509   64.2989   82.1980 C   0  0  0  0  0  0  0  0  0  0  0  0
   -0.1872   63.8173   80.9975 C   0  0  0  0  0  0  0  0  0  0  0  0
    1.5207   65.3250   84.7175 C   0  0  0  0  0  0  0  0  0  0  0  0
    1.3866   66.6713   84.3437 C   0  0  0  0  0  0  0  0  0  0  0  0
    2.4923   67.5206   84.3450 C   0  0  0  0  0  0  0  0  0  0  0  0
    3.7515   67.0211   84.7416 C   0  0  0  0  0  0  0  0  0  0  0  0
    3.9119   65.6672   85.0882 C   0  0  0  0  0  0  0  0  0  0  0  0
    2.7868   64.8368   85.0855 C   0  0  0  0  0  0  0  0  0  0  0  0
    2.4354   68.8812   83.9656 N   0  0  0  0  0  0  0  0  0  0  0  0
    2.2621   69.4106   82.7051 C   0  0  0  0  0  0  0  0  0  0  0  0
    2.2808   70.9187   82.7050 C   0  0  0  0  0  0  0  0  0  0  0  0
    2.0752   68.7863   81.6666 O   0  0  0  0  0  0  0  0  0  0  0  0
    2.5298   69.5224   84.7481 H   0  0  0  0  0  0  0  0  0  0  0  0
    4.7868   67.9354   84.6997 O   0  0  0  0  0  0  0  0  0  0  0  0
    5.2763   68.3132   85.9857 C   0  0  0  0  0  0  0  0  0  0  0  0
    5.1780   65.2405   85.3907 O   0  0  0  0  0  0  0  0  0  0  0  0
    5.4336   64.8226   86.7263 C   0  0  0  0  0  0  0  0  0  0  0  0
   -1.9732   62.6095   87.1974 C   0  0  0  0  0  0  0  0  0  0  0  0
   -3.2000   63.2951   87.4146 O   0  0  0  0  0  0  0  0  0  0  0  0
   -3.4912   63.6563   86.5594 H   0  0  0  0  0  0  0  0  0  0  0  0
    0.3058   64.5125   87.2658 C   0  0  0  0  0  0  0  0  0  0  0  0
    1.2095   63.5440   87.7818 O   0  0  0  0  0  0  0  0  0  0  0  0
    1.5234   63.8926   88.6328 H   0  0  0  0  0  0  0  0  0  0  0  0
   -3.0100   61.8504   79.7970 C   0  0  0  0  0  0  0  0  0  0  0  0
   -1.7488   62.5019   79.8233 O   0  0  0  0  0  0  0  0  0  0  0  0
    0.2882   64.1382   79.7497 O   0  0  0  0  0  0  0  0  0  0  0  0
    0.3332   65.5131   79.3948 C   0  0  0  0  0  0  0  0  0  0  0  0
 32 33  1  0  0  0
 33  1  1  0  0  0
  1  2  1  0  0  0
  2  3  2  0  0  0
  3  4  1  0  0  0
  4  5  2  0  0  0
  5 26  1  0  0  0
 26 27  1  0  0  0
  5  6  1  0  0  0
  6 29  1  0  0  0
 29 30  1  0  0  0
  6  7  2  0  0  0
  7 11  1  0  0  0
 11 12  2  0  0  0
 12 13  1  0  0  0
 13 17  1  0  0  0
 17 18  1  0  0  0
 18 19  1  0  0  0
 18 20  2  0  0  0
 13 14  2  0  0  0
 14 22  1  0  0  0
 22 23  1  0  0  0
 14 15  1  0  0  0
 15 24  1  0  0  0
 24 25  1  0  0  0
 15 16  2  0  0  0
  7  8  1  0  0  0
  8  9  2  0  0  0
  9 10  1  0  0  0
 10 34  1  0  0  0
 34 35  1  0  0  0
 10  1  2  0  0  0
  8  3  1  0  0  0
 16 11  1  0  0  0
 27 28  1  0  0  0
 30 31  1  0  0  0
 17 21  1  0  0  0
M  END
> <minimizedAffinity>
-9.44175

$$$$



 35 37  0  0  0  0  0  0  0  0999 V2000
    1.8041   69.7961   81.4015 C   0  0  0  0  0  0  0  0  0  0  0  0
    3.0042   69.7056   82.1112 C   0  0  0  0  0  0  0  0  0  0  0  0
    3.2884   68.5997   82.9335 C   0  0  0  0  0  0  0  0  0  0  0  0
    4.4967   68.5489   83.6384 C   0  0  0  0  0  0  0  0  0  0  0  0
    4.8205   67.4739   84.4797 C   0  0  0  0  0  0  0  0  0  0  0  0
    3.9229   66.3898   84.5990 C   0  0  0  0  0  0  0  0  0  0  0  0
    2.6789   66.4319   83.9057 C   0  0  0  0  0  0  0  0  0  0  0  0
    2.3595   67.5457   83.0606 C   0  0  0  0  0  0  0  0  0  0  0  0
    1.1464   67.6625   82.3342 C   0  0  0  0  0  0  0  0  0  0  0  0
    0.8652   68.7611   81.5116 C   0  0  0  0  0  0  0  0  0  0  0  0
    1.7036   65.3324   84.0746 C   0  0  0  0  0  0  0  0  0  0  0  0
    1.1201   65.0783   85.3256 C   0  0  0  0  0  0  0  0  0  0  0  0
    0.2055   64.0378   85.4829 C   0  0  0  0  0  0  0  0  0  0  0  0
   -0.1449   63.2465   84.3678 C   0  0  0  0  0  0  0  0  0  0  0  0
    0.4536   63.4653   83.1136 C   0  0  0  0  0  0  0  0  0  0  0  0
    1.3630   64.5189   82.9796 C   0  0  0  0  0  0  0  0  0  0  0  0
   -0.4085   63.7139   86.7143 N   0  0  0  0  0  0  0  0  0  0  0  0
    0.1877   63.5181   87.9413 C   0  0  0  0  0  0  0  0  0  0  0  0
   -0.8082   63.1619   89.0165 C   0  0  0  0  0  0  0  0  0  0  0  0
    1.3791   63.6368   88.2053 O   0  0  0  0  0  0  0  0  0  0  0  0
   -1.4192   63.6306   86.6515 H   0  0  0  0  0  0  0  0  0  0  0  0
   -1.0499   62.2346   84.6257 O   0  0  0  0  0  0  0  0  0  0  0  0
   -2.3832   62.5331   84.2141 C   0  0  0  0  0  0  0  0  0  0  0  0
    0.1174   62.6097   82.0978 O   0  0  0  0  0  0  0  0  0  0  0  0
    0.9502   61.4762   81.8851 C   0  0  0  0  0  0  0  0  0  0  0  0
    6.1467   67.5050   85.2014 C   0  0  0  0  0  0  0  0  0  0  0  0
    5.9977   68.0989   86.4849 O   0  0  0  0  0  0  0  0  0  0  0  0
    5.0585   68.0365   86.7313 H   0  0  0  0  0  0  0  0  0  0  0  0
    4.2731   65.2193   85.4940 C   0  0  0  0  0  0  0  0  0  0  0  0
    4.2516   65.6580   86.8460 O   0  0  0  0  0  0  0  0  0  0  0  0
    4.4947   64.8868   87.3849 H   0  0  0  0  0  0  0  0  0  0  0  0
    2.0516   72.1075   80.8403 C   0  0  0  0  0  0  0  0  0  0  0  0
    1.4590   70.8430   80.5837 O   0  0  0  0  0  0  0  0  0  0  0  0
   -0.2940   68.9153   80.7915 O   0  0  0  0  0  0  0  0  0  0  0  0
   -0.7367   67.8140   80.0109 C   0  0  0  0  0  0  0  0  0  0  0  0
 32 33  1  0  0  0
 33  1  1  0  0  0
  1  2  1  0  0  0
  2  3  2  0  0  0
  3  4  1  0  0  0
  4  5  2  0  0  0
  5 26  1  0  0  0
 26 27  1  0  0  0
  5  6  1  0  0  0
  6 29  1  0  0  0
 29 30  1  0  0  0
  6  7  2  0  0  0
  7 11  1  0  0  0
 11 12  2  0  0  0
 12 13  1  0  0  0
 13 17  1  0  0  0
 17 18  1  0  0  0
 18 19  1  0  0  0
 18 20  2  0  0  0
 13 14  2  0  0  0
 14 22  1  0  0  0
 22 23  1  0  0  0
 14 15  1  0  0  0
 15 24  1  0  0  0
 24 25  1  0  0  0
 15 16  2  0  0  0
  7  8  1  0  0  0
  8  9  2  0  0  0
  9 10  1  0  0  0
 10 34  1  0  0  0
 34 35  1  0  0  0
 10  1  2  0  0  0
  8  3  1  0  0  0
 16 11  1  0  0  0
 27 28  1  0  0  0
 30 31  1  0  0  0
 17 21  1  0  0  0
M  END
> <minimizedAffinity>
-9.32231

$$$$



 35 37  0  0  0  0  0  0  0  0999 V2000
   -0.7515   62.6241   85.2762 C   0  0  0  0  0  0  0  0  0  0  0  0
   -0.8681   62.2363   83.9391 C   0  0  0  0  0  0  0  0  0  0  0  0
   -0.4034   63.0564   82.8943 C   0  0  0  0  0  0  0  0  0  0  0  0
   -0.5476   62.6397   81.5658 C   0  0  0  0  0  0  0  0  0  0  0  0
   -0.1113   63.4267   80.4896 C   0  0  0  0  0  0  0  0  0  0  0  0
    0.5244   64.6621   80.7448 C   0  0  0  0  0  0  0  0  0  0  0  0
    0.6624   65.1134   82.0891 C   0  0  0  0  0  0  0  0  0  0  0  0
    0.1981   64.3009   83.1758 C   0  0  0  0  0  0  0  0  0  0  0  0
    0.3009   64.6749   84.5405 C   0  0  0  0  0  0  0  0  0  0  0  0
   -0.1573   63.8565   85.5812 C   0  0  0  0  0  0  0  0  0  0  0  0
    1.2680   66.4349   82.3642 C   0  0  0  0  0  0  0  0  0  0  0  0
    2.4790   66.5356   83.0665 C   0  0  0  0  0  0  0  0  0  0  0  0
    3.0444   67.7827   83.3291 C   0  0  0  0  0  0  0  0  0  0  0  0
    2.3973   68.9496   82.8687 C   0  0  0  0  0  0  0  0  0  0  0  0
    1.1668   68.8705   82.1916 C   0  0  0  0  0  0  0  0  0  0  0  0
    0.6232   67.6081   81.9346 C   0  0  0  0  0  0  0  0  0  0  0  0
    4.2511   67.9610   84.0437 N   0  0  0  0  0  0  0  0  0  0  0  0
    4.7863   67.1616   85.0305 C   0  0  0  0  0  0  0  0  0  0  0  0
    6.0867   67.7029   85.5696 C   0  0  0  0  0  0  0  0  0  0  0  0
    4.3281   66.1029   85.4458 O   0  0  0  0  0  0  0  0  0  0  0  0
    4.7676   68.7896   83.7626 H   0  0  0  0  0  0  0  0  0  0  0  0
    3.0288   70.1368   83.1868 O   0  0  0  0  0  0  0  0  0  0  0  0
    3.5745   70.8211   82.0598 C   0  0  0  0  0  0  0  0  0  0  0  0
    0.5642   70.0498   81.8411 O   0  0  0  0  0  0  0  0  0  0  0  0
   -0.1406   70.0907   80.6061 C   0  0  0  0  0  0  0  0  0  0  0  0
   -0.3092   62.8966   79.0895 C   0  0  0  0  0  0  0  0  0  0  0  0
    0.7121   61.9616   78.7655 O   0  0  0  0  0  0  0  0  0  0  0  0
    1.0862   61.6325   79.6012 H   0  0  0  0  0  0  0  0  0  0  0  0
    1.0111   65.5098   79.5879 C   0  0  0  0  0  0  0  0  0  0  0  0
   -0.1013   66.1927   79.0247 O   0  0  0  0  0  0  0  0  0  0  0  0
    0.2475   66.7111   78.2805 H   0  0  0  0  0  0  0  0  0  0  0  0
   -2.5429   62.0008   86.7326 C   0  0  0  0  0  0  0  0  0  0  0  0
   -1.1826   61.8782   86.3447 O   0  0  0  0  0  0  0  0  0  0  0  0
   -0.0782   64.1779   86.9140 O   0  0  0  0  0  0  0  0  0  0  0  0
    1.1200   63.8473   87.6020 C   0  0  0  0  0  0  0  0  0  0  0  0
 32 33  1  0  0  0
 33  1  1  0  0  0
  1  2  1  0  0  0
  2  3  2  0  0  0
  3  4  1  0  0  0
  4  5  2  0  0  0
  5 26  1  0  0  0
 26 27  1  0  0  0
  5  6  1  0  0  0
  6 29  1  0  0  0
 29 30  1  0  0  0
  6  7  2  0  0  0
  7 11  1  0  0  0
 11 12  2  0  0  0
 12 13  1  0  0  0
 13 17  1  0  0  0
 17 18  1  0  0  0
 18 19  1  0  0  0
 18 20  2  0  0  0
 13 14  2  0  0  0
 14 22  1  0  0  0
 22 23  1  0  0  0
 14 15  1  0  0  0
 15 24  1  0  0  0
 24 25  1  0  0  0
 15 16  2  0  0  0
  7  8  1  0  0  0
  8  9  2  0  0  0
  9 10  1  0  0  0
 10 34  1  0  0  0
 34 35  1  0  0  0
 10  1  2  0  0  0
  8  3  1  0  0  0
 16 11  1  0  0  0
 27 28  1  0  0  0
 30 31  1  0  0  0
 17 21  1  0  0  0
M  END
> <minimizedAffinity>
-8.88623

$$$$



 35 37  0  0  0  0  0  0  0  0999 V2000
    1.9616   69.5372   81.4339 C   0  0  0  0  0  0  0  0  0  0  0  0
    3.1295   69.4957   82.1995 C   0  0  0  0  0  0  0  0  0  0  0  0
    3.3727   68.4511   83.1104 C   0  0  0  0  0  0  0  0  0  0  0  0
    4.5492   68.4489   83.8688 C   0  0  0  0  0  0  0  0  0  0  0  0
    4.8313   67.4365   84.7981 C   0  0  0  0  0  0  0  0  0  0  0  0
    3.9241   66.3653   84.9557 C   0  0  0  0  0  0  0  0  0  0  0  0
    2.7114   66.3597   84.2080 C   0  0  0  0  0  0  0  0  0  0  0  0
    2.4340   67.4106   83.2723 C   0  0  0  0  0  0  0  0  0  0  0  0
    1.2539   67.4772   82.4875 C   0  0  0  0  0  0  0  0  0  0  0  0
    1.0137   68.5144   81.5771 C   0  0  0  0  0  0  0  0  0  0  0  0
    1.7244   65.2769   84.4128 C   0  0  0  0  0  0  0  0  0  0  0  0
    1.2500   64.5252   83.3265 C   0  0  0  0  0  0  0  0  0  0  0  0
    0.3157   63.5090   83.5220 C   0  0  0  0  0  0  0  0  0  0  0  0
   -0.1416   63.2275   84.8273 C   0  0  0  0  0  0  0  0  0  0  0  0
    0.2978   63.9912   85.9240 C   0  0  0  0  0  0  0  0  0  0  0  0
    1.2398   65.0006   85.7034 C   0  0  0  0  0  0  0  0  0  0  0  0
   -0.2180   62.7233   82.4748 N   0  0  0  0  0  0  0  0  0  0  0  0
    0.3720   61.6698   81.8106 C   0  0  0  0  0  0  0  0  0  0  0  0
   -0.5138   61.0993   80.7314 C   0  0  0  0  0  0  0  0  0  0  0  0
    1.4722   61.1806   82.0417 O   0  0  0  0  0  0  0  0  0  0  0  0
   -1.1611   62.9923   82.2092 H   0  0  0  0  0  0  0  0  0  0  0  0
   -1.0734   62.2111   84.9178 O   0  0  0  0  0  0  0  0  0  0  0  0
   -2.4195   62.6700   85.0347 C   0  0  0  0  0  0  0  0  0  0  0  0
   -0.2467   63.7059   87.1483 O   0  0  0  0  0  0  0  0  0  0  0  0
    0.6453   63.4071   88.2153 C   0  0  0  0  0  0  0  0  0  0  0  0
    6.1253   67.5169   85.5725 C   0  0  0  0  0  0  0  0  0  0  0  0
    7.1794   66.9053   84.8397 O   0  0  0  0  0  0  0  0  0  0  0  0
    6.9142   66.8844   83.9038 H   0  0  0  0  0  0  0  0  0  0  0  0
    4.2298   65.2614   85.9465 C   0  0  0  0  0  0  0  0  0  0  0  0
    5.3885   64.5644   85.5078 O   0  0  0  0  0  0  0  0  0  0  0  0
    5.5425   63.8587   86.1579 H   0  0  0  0  0  0  0  0  0  0  0  0
    1.8015   71.8728   80.9461 C   0  0  0  0  0  0  0  0  0  0  0  0
    1.6571   70.5234   80.5291 O   0  0  0  0  0  0  0  0  0  0  0  0
   -0.1126   68.6186   80.7983 O   0  0  0  0  0  0  0  0  0  0  0  0
   -0.5420   67.4576   80.1013 C   0  0  0  0  0  0  0  0  0  0  0  0
 32 33  1  0  0  0
 33  1  1  0  0  0
  1  2  1  0  0  0
  2  3  2  0  0  0
  3  4  1  0  0  0
  4  5  2  0  0  0
  5 26  1  0  0  0
 26 27  1  0  0  0
  5  6  1  0  0  0
  6 29  1  0  0  0
 29 30  1  0  0  0
  6  7  2  0  0  0
  7 11  1  0  0  0
 11 12  2  0  0  0
 12 13  1  0  0  0
 13 17  1  0  0  0
 17 18  1  0  0  0
 18 19  1  0  0  0
 18 20  2  0  0  0
 13 14  2  0  0  0
 14 22  1  0  0  0
 22 23  1  0  0  0
 14 15  1  0  0  0
 15 24  1  0  0  0
 24 25  1  0  0  0
 15 16  2  0  0  0
  7  8  1  0  0  0
  8  9  2  0  0  0
  9 10  1  0  0  0
 10 34  1  0  0  0
 34 35  1  0  0  0
 10  1  2  0  0  0
  8  3  1  0  0  0
 16 11  1  0  0  0
 27 28  1  0  0  0
 30 31  1  0  0  0
 17 21  1  0  0  0
M  END
> <minimizedAffinity>
-8.85162

$$$$



 35 37  0  0  0  0  0  0  0  0999 V2000
    5.7537   67.1962   85.1134 C   0  0  0  0  0  0  0  0  0  0  0  0
    5.2175   68.1152   84.2080 C   0  0  0  0  0  0  0  0  0  0  0  0
    3.9760   67.8918   83.5846 C   0  0  0  0  0  0  0  0  0  0  0  0
    3.4756   68.8299   82.6741 C   0  0  0  0  0  0  0  0  0  0  0  0
    2.2491   68.6466   82.0182 C   0  0  0  0  0  0  0  0  0  0  0  0
    1.4725   67.5018   82.3039 C   0  0  0  0  0  0  0  0  0  0  0  0
    1.9736   66.5252   83.2123 C   0  0  0  0  0  0  0  0  0  0  0  0
    3.2361   66.7236   83.8631 C   0  0  0  0  0  0  0  0  0  0  0  0
    3.8032   65.8032   84.7819 C   0  0  0  0  0  0  0  0  0  0  0  0
    5.0369   66.0277   85.4064 C   0  0  0  0  0  0  0  0  0  0  0  0
    1.1985   65.2916   83.4693 C   0  0  0  0  0  0  0  0  0  0  0  0
    0.9894   64.3513   82.4485 C   0  0  0  0  0  0  0  0  0  0  0  0
    0.2538   63.1922   82.6923 C   0  0  0  0  0  0  0  0  0  0  0  0
   -0.2692   62.9600   83.9826 C   0  0  0  0  0  0  0  0  0  0  0  0
   -0.0977   63.9061   85.0096 C   0  0  0  0  0  0  0  0  0  0  0  0
    0.6493   65.0575   84.7423 C   0  0  0  0  0  0  0  0  0  0  0  0
   -0.0105   62.2108   81.7097 N   0  0  0  0  0  0  0  0  0  0  0  0
   -0.9333   62.2520   80.6870 C   0  0  0  0  0  0  0  0  0  0  0  0
   -0.9307   60.9931   79.8564 C   0  0  0  0  0  0  0  0  0  0  0  0
   -1.6775   63.1854   80.4076 O   0  0  0  0  0  0  0  0  0  0  0  0
    0.5788   61.3874   81.7935 H   0  0  0  0  0  0  0  0  0  0  0  0
   -0.9918   61.7906   84.1227 O   0  0  0  0  0  0  0  0  0  0  0  0
   -2.4061   61.9796   84.1051 C   0  0  0  0  0  0  0  0  0  0  0  0
   -0.6970   63.6441   86.2133 O   0  0  0  0  0  0  0  0  0  0  0  0
    0.0059   64.0086   87.3951 C   0  0  0  0  0  0  0  0  0  0  0  0
    1.7891   69.7114   81.0512 C   0  0  0  0  0  0  0  0  0  0  0  0
    2.1763   69.3757   79.7247 O   0  0  0  0  0  0  0  0  0  0  0  0
    2.3364   68.4164   79.6983 H   0  0  0  0  0  0  0  0  0  0  0  0
    0.1405   67.3053   81.6104 C   0  0  0  0  0  0  0  0  0  0  0  0
    0.3813   66.9036   80.2682 O   0  0  0  0  0  0  0  0  0  0  0  0
   -0.4923   66.8028   79.8547 H   0  0  0  0  0  0  0  0  0  0  0  0
    8.1353   66.9895   85.0501 C   0  0  0  0  0  0  0  0  0  0  0  0
    6.9568   67.3466   85.7567 O   0  0  0  0  0  0  0  0  0  0  0  0
    5.6227   65.1656   86.3007 O   0  0  0  0  0  0  0  0  0  0  0  0
    5.0879   65.1163   87.6159 C   0  0  0  0  0  0  0  0  0  0  0  0
 32 33  1  0  0  0
 33  1  1  0  0  0
  1  2  1  0  0  0
  2  3  2  0  0  0
  3  4  1  0  0  0
  4  5  2  0  0  0
  5 26  1  0  0  0
 26 27  1  0  0  0
  5  6  1  0  0  0
  6 29  1  0  0  0
 29 30  1  0  0  0
  6  7  2  0  0  0
  7 11  1  0  0  0
 11 12  2  0  0  0
 12 13  1  0  0  0
 13 17  1  0  0  0
 17 18  1  0  0  0
 18 19  1  0  0  0
 18 20  2  0  0  0
 13 14  2  0  0  0
 14 22  1  0  0  0
 22 23  1  0  0  0
 14 15  1  0  0  0
 15 24  1  0  0  0
 24 25  1  0  0  0
 15 16  2  0  0  0
  7  8  1  0  0  0
  8  9  2  0  0  0
  9 10  1  0  0  0
 10 34  1  0  0  0
 34 35  1  0  0  0
 10  1  2  0  0  0
  8  3  1  0  0  0
 16 11  1  0  0  0
 27 28  1  0  0  0
 30 31  1  0  0  0
 17 21  1  0  0  0
M  END
> <minimizedAffinity>
-8.83417

$$$$



 35 37  0  0  0  0  0  0  0  0999 V2000
   -0.9017   61.4249   80.8223 C   0  0  0  0  0  0  0  0  0  0  0  0
   -1.2870   61.2002   82.1463 C   0  0  0  0  0  0  0  0  0  0  0  0
   -0.9113   62.0793   83.1788 C   0  0  0  0  0  0  0  0  0  0  0  0
   -1.3064   61.8156   84.4955 C   0  0  0  0  0  0  0  0  0  0  0  0
   -0.9472   62.6552   85.5605 C   0  0  0  0  0  0  0  0  0  0  0  0
   -0.1937   63.8218   85.3021 C   0  0  0  0  0  0  0  0  0  0  0  0
    0.2355   64.0972   83.9718 C   0  0  0  0  0  0  0  0  0  0  0  0
   -0.1303   63.2199   82.8978 C   0  0  0  0  0  0  0  0  0  0  0  0
    0.2525   63.4242   81.5470 C   0  0  0  0  0  0  0  0  0  0  0  0
   -0.1254   62.5517   80.5182 C   0  0  0  0  0  0  0  0  0  0  0  0
    1.0797   65.2813   83.7002 C   0  0  0  0  0  0  0  0  0  0  0  0
    2.1035   65.6498   84.5868 C   0  0  0  0  0  0  0  0  0  0  0  0
    2.8938   66.7695   84.3309 C   0  0  0  0  0  0  0  0  0  0  0  0
    2.6684   67.5261   83.1608 C   0  0  0  0  0  0  0  0  0  0  0  0
    1.6263   67.1914   82.2771 C   0  0  0  0  0  0  0  0  0  0  0  0
    0.8516   66.0602   82.5521 C   0  0  0  0  0  0  0  0  0  0  0  0
    3.9301   67.2090   85.1861 N   0  0  0  0  0  0  0  0  0  0  0  0
    5.1321   66.5927   85.4592 C   0  0  0  0  0  0  0  0  0  0  0  0
    5.9663   67.3676   86.4483 C   0  0  0  0  0  0  0  0  0  0  0  0
    5.5519   65.5521   84.9651 O   0  0  0  0  0  0  0  0  0  0  0  0
    3.7334   68.0999   85.6333 H   0  0  0  0  0  0  0  0  0  0  0  0
    3.4947   68.6220   83.0007 O   0  0  0  0  0  0  0  0  0  0  0  0
    2.8436   69.8731   83.2174 C   0  0  0  0  0  0  0  0  0  0  0  0
    1.4231   68.0160   81.2022 O   0  0  0  0  0  0  0  0  0  0  0  0
    1.4658   67.4340   79.9049 C   0  0  0  0  0  0  0  0  0  0  0  0
   -1.4179   62.2911   86.9484 C   0  0  0  0  0  0  0  0  0  0  0  0
   -0.6440   61.2169   87.4675 O   0  0  0  0  0  0  0  0  0  0  0  0
    0.1949   61.1933   86.9752 H   0  0  0  0  0  0  0  0  0  0  0  0
    0.1848   64.7402   86.4453 C   0  0  0  0  0  0  0  0  0  0  0  0
    1.1533   64.0850   87.2538 O   0  0  0  0  0  0  0  0  0  0  0  0
    1.3582   64.6967   87.9805 H   0  0  0  0  0  0  0  0  0  0  0  0
   -2.6051   60.4467   79.4584 C   0  0  0  0  0  0  0  0  0  0  0  0
   -1.2290   60.6114   79.7663 O   0  0  0  0  0  0  0  0  0  0  0  0
    0.2219   62.7103   79.1990 O   0  0  0  0  0  0  0  0  0  0  0  0
   -0.3072   63.8334   78.5083 C   0  0  0  0  0  0  0  0  0  0  0  0
 32 33  1  0  0  0
 33  1  1  0  0  0
  1  2  1  0  0  0
  2  3  2  0  0  0
  3  4  1  0  0  0
  4  5  2  0  0  0
  5 26  1  0  0  0
 26 27  1  0  0  0
  5  6  1  0  0  0
  6 29  1  0  0  0
 29 30  1  0  0  0
  6  7  2  0  0  0
  7 11  1  0  0  0
 11 12  2  0  0  0
 12 13  1  0  0  0
 13 17  1  0  0  0
 17 18  1  0  0  0
 18 19  1  0  0  0
 18 20  2  0  0  0
 13 14  2  0  0  0
 14 22  1  0  0  0
 22 23  1  0  0  0
 14 15  1  0  0  0
 15 24  1  0  0  0
 24 25  1  0  0  0
 15 16  2  0  0  0
  7  8  1  0  0  0
  8  9  2  0  0  0
  9 10  1  0  0  0
 10 34  1  0  0  0
 34 35  1  0  0  0
 10  1  2  0  0  0
  8  3  1  0  0  0
 16 11  1  0  0  0
 27 28  1  0  0  0
 30 31  1  0  0  0
 17 21  1  0  0  0
M  END
> <minimizedAffinity>
-8.79350

$$$$



 35 37  0  0  0  0  0  0  0  0999 V2000
   -0.6518   62.6328   85.2147 C   0  0  0  0  0  0  0  0  0  0  0  0
   -0.7438   62.2523   83.8735 C   0  0  0  0  0  0  0  0  0  0  0  0
   -0.2871   63.0911   82.8401 C   0  0  0  0  0  0  0  0  0  0  0  0
   -0.4061   62.6810   81.5070 C   0  0  0  0  0  0  0  0  0  0  0  0
    0.0234   63.4863   80.4416 C   0  0  0  0  0  0  0  0  0  0  0  0
    0.6263   64.7345   80.7130 C   0  0  0  0  0  0  0  0  0  0  0  0
    0.7381   65.1790   82.0620 C   0  0  0  0  0  0  0  0  0  0  0  0
    0.2811   64.3475   83.1375 C   0  0  0  0  0  0  0  0  0  0  0  0
    0.3594   64.7136   84.5059 C   0  0  0  0  0  0  0  0  0  0  0  0
   -0.0908   63.8768   85.5353 C   0  0  0  0  0  0  0  0  0  0  0  0
    1.3087   66.5124   82.3536 C   0  0  0  0  0  0  0  0  0  0  0  0
    0.6124   67.6808   82.0070 C   0  0  0  0  0  0  0  0  0  0  0  0
    1.1552   68.9361   82.2781 C   0  0  0  0  0  0  0  0  0  0  0  0
    2.4085   69.0268   82.9210 C   0  0  0  0  0  0  0  0  0  0  0  0
    3.1358   67.8675   83.2467 C   0  0  0  0  0  0  0  0  0  0  0  0
    2.5675   66.6201   82.9706 C   0  0  0  0  0  0  0  0  0  0  0  0
    0.5194   70.1535   81.9432 N   0  0  0  0  0  0  0  0  0  0  0  0
   -0.1806   70.4654   80.7978 C   0  0  0  0  0  0  0  0  0  0  0  0
   -0.6924   71.8842   80.8026 C   0  0  0  0  0  0  0  0  0  0  0  0
   -0.4251   69.7144   79.8601 O   0  0  0  0  0  0  0  0  0  0  0  0
    0.6024   70.8637   82.6650 H   0  0  0  0  0  0  0  0  0  0  0  0
    2.8671   70.3123   83.1370 O   0  0  0  0  0  0  0  0  0  0  0  0
    3.5820   70.8640   82.0321 C   0  0  0  0  0  0  0  0  0  0  0  0
    4.3765   68.0379   83.8020 O   0  0  0  0  0  0  0  0  0  0  0  0
    4.4940   67.9005   85.2130 C   0  0  0  0  0  0  0  0  0  0  0  0
   -0.1458   62.9620   79.0355 C   0  0  0  0  0  0  0  0  0  0  0  0
    0.3518   61.6333   78.9396 O   0  0  0  0  0  0  0  0  0  0  0  0
    0.3687   61.2594   79.8377 H   0  0  0  0  0  0  0  0  0  0  0  0
    1.1056   65.6022   79.5680 C   0  0  0  0  0  0  0  0  0  0  0  0
   -0.0137   66.2776   79.0094 O   0  0  0  0  0  0  0  0  0  0  0  0
    0.3308   66.8093   78.2726 H   0  0  0  0  0  0  0  0  0  0  0  0
   -2.4356   61.9835   86.6690 C   0  0  0  0  0  0  0  0  0  0  0  0
   -1.0770   61.8689   86.2727 O   0  0  0  0  0  0  0  0  0  0  0  0
   -0.0347   64.1900   86.8712 O   0  0  0  0  0  0  0  0  0  0  0  0
    1.1623   63.8809   87.5711 C   0  0  0  0  0  0  0  0  0  0  0  0
 32 33  1  0  0  0
 33  1  1  0  0  0
  1  2  1  0  0  0
  2  3  2  0  0  0
  3  4  1  0  0  0
  4  5  2  0  0  0
  5 26  1  0  0  0
 26 27  1  0  0  0
  5  6  1  0  0  0
  6 29  1  0  0  0
 29 30  1  0  0  0
  6  7  2  0  0  0
  7 11  1  0  0  0
 11 12  2  0  0  0
 12 13  1  0  0  0
 13 17  1  0  0  0
 17 18  1  0  0  0
 18 19  1  0  0  0
 18 20  2  0  0  0
 13 14  2  0  0  0
 14 22  1  0  0  0
 22 23  1  0  0  0
 14 15  1  0  0  0
 15 24  1  0  0  0
 24 25  1  0  0  0
 15 16  2  0  0  0
  7  8  1  0  0  0
  8  9  2  0  0  0
  9 10  1  0  0  0
 10 34  1  0  0  0
 34 35  1  0  0  0
 10  1  2  0  0  0
  8  3  1  0  0  0
 16 11  1  0  0  0
 27 28  1  0  0  0
 30 31  1  0  0  0
 17 21  1  0  0  0
M  END
> <minimizedAffinity>
-8.72420

$$$$



 35 37  0  0  0  0  0  0  0  0999 V2000
    2.3469   67.4374   82.8969 C   0  0  0  0  0  0  0  0  0  0  0  0
    2.0538   66.9414   84.1697 C   0  0  0  0  0  0  0  0  0  0  0  0
    1.2886   65.7734   84.3435 C   0  0  0  0  0  0  0  0  0  0  0  0
    1.0054   65.3126   85.6346 C   0  0  0  0  0  0  0  0  0  0  0  0
    0.2373   64.1605   85.8596 C   0  0  0  0  0  0  0  0  0  0  0  0
   -0.2402   63.4173   84.7573 C   0  0  0  0  0  0  0  0  0  0  0  0
    0.0200   63.8808   83.4355 C   0  0  0  0  0  0  0  0  0  0  0  0
    0.7960   65.0685   83.2254 C   0  0  0  0  0  0  0  0  0  0  0  0
    1.1026   65.5940   81.9437 C   0  0  0  0  0  0  0  0  0  0  0  0
    1.8684   66.7542   81.7702 C   0  0  0  0  0  0  0  0  0  0  0  0
   -0.5302   63.1460   82.2753 C   0  0  0  0  0  0  0  0  0  0  0  0
   -0.6337   63.7642   81.0194 C   0  0  0  0  0  0  0  0  0  0  0  0
   -1.1578   63.0708   79.9292 C   0  0  0  0  0  0  0  0  0  0  0  0
   -1.5716   61.7311   80.0918 C   0  0  0  0  0  0  0  0  0  0  0  0
   -1.5058   61.1053   81.3500 C   0  0  0  0  0  0  0  0  0  0  0  0
   -0.9704   61.8192   82.4265 C   0  0  0  0  0  0  0  0  0  0  0  0
   -1.3070   63.6337   78.6410 N   0  0  0  0  0  0  0  0  0  0  0  0
   -0.3704   63.7242   77.6341 C   0  0  0  0  0  0  0  0  0  0  0  0
   -0.9072   64.4187   76.4075 C   0  0  0  0  0  0  0  0  0  0  0  0
    0.7733   63.2830   77.6541 O   0  0  0  0  0  0  0  0  0  0  0  0
   -2.2380   64.0014   78.4670 H   0  0  0  0  0  0  0  0  0  0  0  0
   -2.0863   61.1328   78.9576 O   0  0  0  0  0  0  0  0  0  0  0  0
   -1.2052   60.1872   78.3527 C   0  0  0  0  0  0  0  0  0  0  0  0
   -1.9942   59.8289   81.4445 O   0  0  0  0  0  0  0  0  0  0  0  0
   -3.0269   59.5845   82.3918 C   0  0  0  0  0  0  0  0  0  0  0  0
   -0.0183   63.7389   87.2870 C   0  0  0  0  0  0  0  0  0  0  0  0
    1.1830   63.8054   88.0452 O   0  0  0  0  0  0  0  0  0  0  0  0
    1.7903   64.4088   87.5827 H   0  0  0  0  0  0  0  0  0  0  0  0
   -1.0575   62.1643   84.9934 C   0  0  0  0  0  0  0  0  0  0  0  0
   -2.3963   62.5427   85.2857 O   0  0  0  0  0  0  0  0  0  0  0  0
   -2.8827   61.7166   85.4448 H   0  0  0  0  0  0  0  0  0  0  0  0
    2.5164   69.8201   83.0098 C   0  0  0  0  0  0  0  0  0  0  0  0
    3.0841   68.5689   82.6518 O   0  0  0  0  0  0  0  0  0  0  0  0
    2.1891   67.2977   80.5505 O   0  0  0  0  0  0  0  0  0  0  0  0
    1.8116   66.5752   79.3870 C   0  0  0  0  0  0  0  0  0  0  0  0
 32 33  1  0  0  0
 33  1  1  0  0  0
  1  2  1  0  0  0
  2  3  2  0  0  0
  3  4  1  0  0  0
  4  5  2  0  0  0
  5 26  1  0  0  0
 26 27  1  0  0  0
  5  6  1  0  0  0
  6 29  1  0  0  0
 29 30  1  0  0  0
  6  7  2  0  0  0
  7 11  1  0  0  0
 11 12  2  0  0  0
 12 13  1  0  0  0
 13 17  1  0  0  0
 17 18  1  0  0  0
 18 19  1  0  0  0
 18 20  2  0  0  0
 13 14  2  0  0  0
 14 22  1  0  0  0
 22 23  1  0  0  0
 14 15  1  0  0  0
 15 24  1  0  0  0
 24 25  1  0  0  0
 15 16  2  0  0  0
  7  8  1  0  0  0
  8  9  2  0  0  0
  9 10  1  0  0  0
 10 34  1  0  0  0
 34 35  1  0  0  0
 10  1  2  0  0  0
  8  3  1  0  0  0
 16 11  1  0  0  0
 27 28  1  0  0  0
 30 31  1  0  0  0
 17 21  1  0  0  0
M  END
> <minimizedAffinity>
-8.55357

$$$$
