


 25 27  0  0  0  0  0  0  0  0999 V2000
    3.4191   75.8195   81.3929 N   0  0  0  0  0  0  0  0  0  0  0  0
    2.8325   74.6615   81.4193 C   0  0  0  0  0  0  0  0  0  0  0  0
    3.5981   73.1164   81.7876 S   0  0  0  0  0  0  0  0  0  0  0  0
    2.0642   72.3312   81.4349 C   0  0  0  0  0  0  0  0  0  0  0  0
    1.0688   73.1132   81.1302 N   0  0  0  0  0  0  0  0  0  0  0  0
    1.4972   74.4186   81.1743 N   0  0  0  0  0  0  0  0  0  0  0  0
    0.6352   75.4184   80.5797 C   0  0  0  0  0  0  0  0  0  0  0  0
    4.2476   76.4141   84.0684 C   0  0  0  0  0  0  0  0  0  0  0  0
    5.2372   76.2391   82.9476 C   0  0  0  0  0  0  0  0  0  0  0  0
    6.6084   76.3754   83.2158 C   0  0  0  0  0  0  0  0  0  0  0  0
    7.5471   76.2362   82.1976 C   0  0  0  0  0  0  0  0  0  0  0  0
    7.1251   75.9627   80.8988 C   0  0  0  0  0  0  0  0  0  0  0  0
    5.7577   75.8136   80.6085 C   0  0  0  0  0  0  0  0  0  0  0  0
    4.8009   75.9258   81.6392 C   0  0  0  0  0  0  0  0  0  0  0  0
    5.3451   75.5243   79.2090 C   0  0  0  0  0  0  0  0  0  0  0  0
    4.8855   76.2880   78.3820 O   0  0  0  0  0  0  0  0  0  0  0  0
    5.5355   74.2254   78.8941 O   0  0  0  0  0  0  0  0  0  0  0  0
    5.2550   74.1798   77.9561 H   0  0  0  0  0  0  0  0  0  0  0  0
    1.9367   70.8514   81.4872 C   0  0  0  0  0  0  0  0  0  0  0  0
    0.9934   70.1378   80.7326 C   0  0  0  0  0  0  0  0  0  0  0  0
    0.9214   68.7425   80.8240 C   0  0  0  0  0  0  0  0  0  0  0  0
    1.7891   68.0536   81.6684 C   0  0  0  0  0  0  0  0  0  0  0  0
    1.6969   66.3399   81.7769 Cl  0  0  0  0  0  0  0  0  0  0  0  0
    2.7300   68.7467   82.4246 C   0  0  0  0  0  0  0  0  0  0  0  0
    2.8031   70.1404   82.3343 C   0  0  0  0  0  0  0  0  0  0  0  0
  8  9  1  0  0  0
  9 10  2  0  0  0
 10 11  1  0  0  0
 11 12  2  0  0  0
 12 13  1  0  0  0
 13 15  1  0  0  0
 15 16  2  0  0  0
 15 17  1  0  0  0
 13 14  2  0  0  0
 14  1  1  0  0  0
  1  2  2  0  0  0
  2  3  1  0  0  0
  3  4  1  0  0  0
  4 19  1  0  0  0
 19 20  1  0  0  0
 20 21  2  0  0  0
 21 22  1  0  0  0
 22 23  1  0  0  0
 22 24  2  0  0  0
 24 25  1  0  0  0
  4  5  2  0  0  0
  5  6  1  0  0  0
  6  7  1  0  0  0
 14  9  1  0  0  0
  6  2  1  0  0  0
 25 19  2  0  0  0
 17 18  1  0  0  0
M  END
> <minimizedAffinity>
-0.86293

$$$$



 25 27  0  0  0  0  0  0  0  0999 V2000
    2.5410   77.6211   82.2088 N   0  0  0  0  0  0  0  0  0  0  0  0
    2.3839   76.4051   81.7814 C   0  0  0  0  0  0  0  0  0  0  0  0
    2.1239   74.9768   82.7822 S   0  0  0  0  0  0  0  0  0  0  0  0
    2.1783   74.0044   81.3175 C   0  0  0  0  0  0  0  0  0  0  0  0
    2.3174   74.6516   80.1964 N   0  0  0  0  0  0  0  0  0  0  0  0
    2.3802   75.9985   80.4636 N   0  0  0  0  0  0  0  0  0  0  0  0
    2.8332   76.8647   79.3954 C   0  0  0  0  0  0  0  0  0  0  0  0
    0.0538   78.3405   83.4311 C   0  0  0  0  0  0  0  0  0  0  0  0
    1.3377   78.2755   84.2144 C   0  0  0  0  0  0  0  0  0  0  0  0
    1.3214   78.5806   85.5845 C   0  0  0  0  0  0  0  0  0  0  0  0
    2.4948   78.5460   86.3323 C   0  0  0  0  0  0  0  0  0  0  0  0
    3.6985   78.2094   85.7178 C   0  0  0  0  0  0  0  0  0  0  0  0
    3.7372   77.8918   84.3489 C   0  0  0  0  0  0  0  0  0  0  0  0
    2.5486   77.8975   83.5889 C   0  0  0  0  0  0  0  0  0  0  0  0
    5.0418   77.5395   83.7272 C   0  0  0  0  0  0  0  0  0  0  0  0
    5.5211   76.4367   83.5468 O   0  0  0  0  0  0  0  0  0  0  0  0
    5.7212   78.6406   83.3419 O   0  0  0  0  0  0  0  0  0  0  0  0
    6.5313   78.2709   82.9322 H   0  0  0  0  0  0  0  0  0  0  0  0
    2.0707   72.5236   81.3824 C   0  0  0  0  0  0  0  0  0  0  0  0
    3.1762   71.6845   81.5882 C   0  0  0  0  0  0  0  0  0  0  0  0
    3.0117   70.2951   81.6403 C   0  0  0  0  0  0  0  0  0  0  0  0
    1.7447   69.7370   81.4869 C   0  0  0  0  0  0  0  0  0  0  0  0
    1.5478   68.0299   81.5520 Cl  0  0  0  0  0  0  0  0  0  0  0  0
    0.6376   70.5553   81.2810 C   0  0  0  0  0  0  0  0  0  0  0  0
    0.8004   71.9434   81.2288 C   0  0  0  0  0  0  0  0  0  0  0  0
  8  9  1  0  0  0
  9 10  2  0  0  0
 10 11  1  0  0  0
 11 12  2  0  0  0
 12 13  1  0  0  0
 13 15  1  0  0  0
 15 16  2  0  0  0
 15 17  1  0  0  0
 13 14  2  0  0  0
 14  1  1  0  0  0
  1  2  2  0  0  0
  2  3  1  0  0  0
  3  4  1  0  0  0
  4 19  1  0  0  0
 19 20  1  0  0  0
 20 21  2  0  0  0
 21 22  1  0  0  0
 22 23  1  0  0  0
 22 24  2  0  0  0
 24 25  1  0  0  0
  4  5  2  0  0  0
  5  6  1  0  0  0
  6  7  1  0  0  0
 14  9  1  0  0  0
  6  2  1  0  0  0
 25 19  2  0  0  0
 17 18  1  0  0  0
M  END
> <minimizedAffinity>
-0.84036

$$$$



 25 27  0  0  0  0  0  0  0  0999 V2000
    1.1558   74.8032   81.9672 N   0  0  0  0  0  0  0  0  0  0  0  0
    2.3024   74.5141   81.4310 C   0  0  0  0  0  0  0  0  0  0  0  0
    3.3043   75.6011   80.4699 S   0  0  0  0  0  0  0  0  0  0  0  0
    4.4082   74.2590   80.1975 C   0  0  0  0  0  0  0  0  0  0  0  0
    4.1144   73.1370   80.7892 N   0  0  0  0  0  0  0  0  0  0  0  0
    2.9613   73.3057   81.5181 N   0  0  0  0  0  0  0  0  0  0  0  0
    2.3037   72.1100   82.0023 C   0  0  0  0  0  0  0  0  0  0  0  0
    1.7459   76.8261   83.9057 C   0  0  0  0  0  0  0  0  0  0  0  0
    0.8380   77.0859   82.7333 C   0  0  0  0  0  0  0  0  0  0  0  0
    0.2567   78.3550   82.5840 C   0  0  0  0  0  0  0  0  0  0  0  0
   -0.6003   78.6213   81.5202 C   0  0  0  0  0  0  0  0  0  0  0  0
   -0.8887   77.6205   80.5954 C   0  0  0  0  0  0  0  0  0  0  0  0
   -0.3113   76.3448   80.7202 C   0  0  0  0  0  0  0  0  0  0  0  0
    0.5799   76.0738   81.7796 C   0  0  0  0  0  0  0  0  0  0  0  0
   -0.6451   75.3010   79.7144 C   0  0  0  0  0  0  0  0  0  0  0  0
   -1.4785   74.4185   79.7873 O   0  0  0  0  0  0  0  0  0  0  0  0
    0.1201   75.4152   78.6081 O   0  0  0  0  0  0  0  0  0  0  0  0
   -0.2162   74.6992   78.0293 H   0  0  0  0  0  0  0  0  0  0  0  0
    5.6055   74.4217   79.3323 C   0  0  0  0  0  0  0  0  0  0  0  0
    6.2235   73.3491   78.6718 C   0  0  0  0  0  0  0  0  0  0  0  0
    7.3500   73.5651   77.8689 C   0  0  0  0  0  0  0  0  0  0  0  0
    7.8649   74.8511   77.7219 C   0  0  0  0  0  0  0  0  0  0  0  0
    9.2484   75.1112   76.7343 Cl  0  0  0  0  0  0  0  0  0  0  0  0
    7.2642   75.9260   78.3710 C   0  0  0  0  0  0  0  0  0  0  0  0
    6.1389   75.7117   79.1734 C   0  0  0  0  0  0  0  0  0  0  0  0
  8  9  1  0  0  0
  9 10  2  0  0  0
 10 11  1  0  0  0
 11 12  2  0  0  0
 12 13  1  0  0  0
 13 15  1  0  0  0
 15 16  2  0  0  0
 15 17  1  0  0  0
 13 14  2  0  0  0
 14  1  1  0  0  0
  1  2  2  0  0  0
  2  3  1  0  0  0
  3  4  1  0  0  0
  4 19  1  0  0  0
 19 20  1  0  0  0
 20 21  2  0  0  0
 21 22  1  0  0  0
 22 23  1  0  0  0
 22 24  2  0  0  0
 24 25  1  0  0  0
  4  5  2  0  0  0
  5  6  1  0  0  0
  6  7  1  0  0  0
 14  9  1  0  0  0
  6  2  1  0  0  0
 25 19  2  0  0  0
 17 18  1  0  0  0
M  END
> <minimizedAffinity>
-0.82486

$$$$



 25 27  0  0  0  0  0  0  0  0999 V2000
    2.8473   75.9432   81.2633 N   0  0  0  0  0  0  0  0  0  0  0  0
    2.9564   74.6522   81.1790 C   0  0  0  0  0  0  0  0  0  0  0  0
    1.8048   73.4689   81.7980 S   0  0  0  0  0  0  0  0  0  0  0  0
    2.9165   72.2015   81.2961 C   0  0  0  0  0  0  0  0  0  0  0  0
    4.0001   72.5883   80.6865 N   0  0  0  0  0  0  0  0  0  0  0  0
    3.9876   73.9588   80.5810 N   0  0  0  0  0  0  0  0  0  0  0  0
    5.2290   74.6052   80.2101 C   0  0  0  0  0  0  0  0  0  0  0  0
    0.4802   76.4341   79.7290 C   0  0  0  0  0  0  0  0  0  0  0  0
    0.5752   76.7978   81.1867 C   0  0  0  0  0  0  0  0  0  0  0  0
   -0.5253   77.4006   81.8163 C   0  0  0  0  0  0  0  0  0  0  0  0
   -0.4626   77.7640   83.1584 C   0  0  0  0  0  0  0  0  0  0  0  0
    0.7027   77.5322   83.8853 C   0  0  0  0  0  0  0  0  0  0  0  0
    1.8140   76.9221   83.2779 C   0  0  0  0  0  0  0  0  0  0  0  0
    1.7501   76.5254   81.9255 C   0  0  0  0  0  0  0  0  0  0  0  0
    3.0417   76.6930   84.0858 C   0  0  0  0  0  0  0  0  0  0  0  0
    3.3940   75.6788   84.6566 O   0  0  0  0  0  0  0  0  0  0  0  0
    3.8101   77.8014   84.1460 O   0  0  0  0  0  0  0  0  0  0  0  0
    4.5827   77.5089   84.6734 H   0  0  0  0  0  0  0  0  0  0  0  0
    2.6133   70.7720   81.5665 C   0  0  0  0  0  0  0  0  0  0  0  0
    3.1972   70.0521   82.6197 C   0  0  0  0  0  0  0  0  0  0  0  0
    2.8713   68.7059   82.8247 C   0  0  0  0  0  0  0  0  0  0  0  0
    1.9626   68.0724   81.9802 C   0  0  0  0  0  0  0  0  0  0  0  0
    1.5655   66.4190   82.2363 Cl  0  0  0  0  0  0  0  0  0  0  0  0
    1.3751   68.7720   80.9299 C   0  0  0  0  0  0  0  0  0  0  0  0
    1.6997   70.1167   80.7240 C   0  0  0  0  0  0  0  0  0  0  0  0
  8  9  1  0  0  0
  9 10  2  0  0  0
 10 11  1  0  0  0
 11 12  2  0  0  0
 12 13  1  0  0  0
 13 15  1  0  0  0
 15 16  2  0  0  0
 15 17  1  0  0  0
 13 14  2  0  0  0
 14  1  1  0  0  0
  1  2  2  0  0  0
  2  3  1  0  0  0
  3  4  1  0  0  0
  4 19  1  0  0  0
 19 20  1  0  0  0
 20 21  2  0  0  0
 21 22  1  0  0  0
 22 23  1  0  0  0
 22 24  2  0  0  0
 24 25  1  0  0  0
  4  5  2  0  0  0
  5  6  1  0  0  0
  6  7  1  0  0  0
 14  9  1  0  0  0
  6  2  1  0  0  0
 25 19  2  0  0  0
 17 18  1  0  0  0
M  END
> <minimizedAffinity>
-0.81677

$$$$



 25 27  0  0  0  0  0  0  0  0999 V2000
    3.2992   75.9041   81.1239 N   0  0  0  0  0  0  0  0  0  0  0  0
    2.7650   74.7267   81.2430 C   0  0  0  0  0  0  0  0  0  0  0  0
    3.6140   73.2365   81.6526 S   0  0  0  0  0  0  0  0  0  0  0  0
    2.0994   72.3719   81.4236 C   0  0  0  0  0  0  0  0  0  0  0  0
    1.0572   73.0951   81.1304 N   0  0  0  0  0  0  0  0  0  0  0  0
    1.4308   74.4170   81.0820 N   0  0  0  0  0  0  0  0  0  0  0  0
    0.4977   75.3468   80.4810 C   0  0  0  0  0  0  0  0  0  0  0  0
    4.9724   75.5004   78.8358 C   0  0  0  0  0  0  0  0  0  0  0  0
    5.5376   75.8661   80.1823 C   0  0  0  0  0  0  0  0  0  0  0  0
    6.9265   76.0099   80.3270 C   0  0  0  0  0  0  0  0  0  0  0  0
    7.4810   76.3308   81.5626 C   0  0  0  0  0  0  0  0  0  0  0  0
    6.6531   76.5080   82.6686 C   0  0  0  0  0  0  0  0  0  0  0  0
    5.2588   76.3774   82.5453 C   0  0  0  0  0  0  0  0  0  0  0  0
    4.6858   76.0794   81.2911 C   0  0  0  0  0  0  0  0  0  0  0  0
    4.4073   76.5716   83.7494 C   0  0  0  0  0  0  0  0  0  0  0  0
    3.9322   75.7278   84.4846 O   0  0  0  0  0  0  0  0  0  0  0  0
    4.1771   77.8802   83.9885 O   0  0  0  0  0  0  0  0  0  0  0  0
    3.6389   77.8660   84.8075 H   0  0  0  0  0  0  0  0  0  0  0  0
    2.0385   70.8934   81.5616 C   0  0  0  0  0  0  0  0  0  0  0  0
    2.8586   70.1729   82.4430 C   0  0  0  0  0  0  0  0  0  0  0  0
    2.7546   68.7793   82.5290 C   0  0  0  0  0  0  0  0  0  0  0  0
    1.8331   68.0988   81.7364 C   0  0  0  0  0  0  0  0  0  0  0  0
    1.7091   66.3872   81.8460 Cl  0  0  0  0  0  0  0  0  0  0  0  0
    1.0127   68.7986   80.8561 C   0  0  0  0  0  0  0  0  0  0  0  0
    1.1155   70.1906   80.7691 C   0  0  0  0  0  0  0  0  0  0  0  0
  8  9  1  0  0  0
  9 10  2  0  0  0
 10 11  1  0  0  0
 11 12  2  0  0  0
 12 13  1  0  0  0
 13 15  1  0  0  0
 15 16  2  0  0  0
 15 17  1  0  0  0
 13 14  2  0  0  0
 14  1  1  0  0  0
  1  2  2  0  0  0
  2  3  1  0  0  0
  3  4  1  0  0  0
  4 19  1  0  0  0
 19 20  1  0  0  0
 20 21  2  0  0  0
 21 22  1  0  0  0
 22 23  1  0  0  0
 22 24  2  0  0  0
 24 25  1  0  0  0
  4  5  2  0  0  0
  5  6  1  0  0  0
  6  7  1  0  0  0
 14  9  1  0  0  0
  6  2  1  0  0  0
 25 19  2  0  0  0
 17 18  1  0  0  0
M  END
> <minimizedAffinity>
-0.80849

$$$$



 25 27  0  0  0  0  0  0  0  0999 V2000
    1.4828   76.7844   81.6689 N   0  0  0  0  0  0  0  0  0  0  0  0
    1.2653   75.5156   81.4998 C   0  0  0  0  0  0  0  0  0  0  0  0
    2.0988   74.1989   82.3250 S   0  0  0  0  0  0  0  0  0  0  0  0
    1.1894   73.0689   81.3300 C   0  0  0  0  0  0  0  0  0  0  0  0
    0.3202   73.5869   80.5106 N   0  0  0  0  0  0  0  0  0  0  0  0
    0.3349   74.9542   80.6506 N   0  0  0  0  0  0  0  0  0  0  0  0
   -0.3327   75.7314   79.6274 C   0  0  0  0  0  0  0  0  0  0  0  0
    0.6784   77.5531   84.3070 C   0  0  0  0  0  0  0  0  0  0  0  0
    2.1126   77.6309   83.8564 C   0  0  0  0  0  0  0  0  0  0  0  0
    3.0882   78.0984   84.7511 C   0  0  0  0  0  0  0  0  0  0  0  0
    4.4199   78.1979   84.3590 C   0  0  0  0  0  0  0  0  0  0  0  0
    4.7908   77.8346   83.0666 C   0  0  0  0  0  0  0  0  0  0  0  0
    3.8323   77.3557   82.1564 C   0  0  0  0  0  0  0  0  0  0  0  0
    2.4849   77.2255   82.5535 C   0  0  0  0  0  0  0  0  0  0  0  0
    4.2659   76.9797   80.7842 C   0  0  0  0  0  0  0  0  0  0  0  0
    4.6502   75.8988   80.3812 O   0  0  0  0  0  0  0  0  0  0  0  0
    4.1961   78.0284   79.9369 O   0  0  0  0  0  0  0  0  0  0  0  0
    4.4769   77.6427   79.0808 H   0  0  0  0  0  0  0  0  0  0  0  0
    1.4202   71.6046   81.4363 C   0  0  0  0  0  0  0  0  0  0  0  0
    2.5684   71.0517   82.0231 C   0  0  0  0  0  0  0  0  0  0  0  0
    2.7295   69.6627   82.0945 C   0  0  0  0  0  0  0  0  0  0  0  0
    1.7466   68.8198   81.5808 C   0  0  0  0  0  0  0  0  0  0  0  0
    1.9489   67.1146   81.6712 Cl  0  0  0  0  0  0  0  0  0  0  0  0
    0.6019   69.3522   80.9945 C   0  0  0  0  0  0  0  0  0  0  0  0
    0.4397   70.7394   80.9224 C   0  0  0  0  0  0  0  0  0  0  0  0
  8  9  1  0  0  0
  9 10  2  0  0  0
 10 11  1  0  0  0
 11 12  2  0  0  0
 12 13  1  0  0  0
 13 15  1  0  0  0
 15 16  2  0  0  0
 15 17  1  0  0  0
 13 14  2  0  0  0
 14  1  1  0  0  0
  1  2  2  0  0  0
  2  3  1  0  0  0
  3  4  1  0  0  0
  4 19  1  0  0  0
 19 20  1  0  0  0
 20 21  2  0  0  0
 21 22  1  0  0  0
 22 23  1  0  0  0
 22 24  2  0  0  0
 24 25  1  0  0  0
  4  5  2  0  0  0
  5  6  1  0  0  0
  6  7  1  0  0  0
 14  9  1  0  0  0
  6  2  1  0  0  0
 25 19  2  0  0  0
 17 18  1  0  0  0
M  END
> <minimizedAffinity>
-0.80250

$$$$



 25 27  0  0  0  0  0  0  0  0999 V2000
    3.5236   75.7541   81.4246 N   0  0  0  0  0  0  0  0  0  0  0  0
    3.4664   74.4657   81.2744 C   0  0  0  0  0  0  0  0  0  0  0  0
    2.3064   73.3803   82.0396 S   0  0  0  0  0  0  0  0  0  0  0  0
    3.1629   72.0309   81.3051 C   0  0  0  0  0  0  0  0  0  0  0  0
    4.1656   72.3326   80.5312 N   0  0  0  0  0  0  0  0  0  0  0  0
    4.2946   73.7001   80.4808 N   0  0  0  0  0  0  0  0  0  0  0  0
    5.5221   74.2289   79.9240 C   0  0  0  0  0  0  0  0  0  0  0  0
    4.3439   76.1391   84.1406 C   0  0  0  0  0  0  0  0  0  0  0  0
    3.0000   76.5979   83.6410 C   0  0  0  0  0  0  0  0  0  0  0  0
    2.1167   77.2296   84.5306 C   0  0  0  0  0  0  0  0  0  0  0  0
    0.8605   77.6499   84.1033 C   0  0  0  0  0  0  0  0  0  0  0  0
    0.4719   77.4401   82.7824 C   0  0  0  0  0  0  0  0  0  0  0  0
    1.3433   76.8174   81.8718 C   0  0  0  0  0  0  0  0  0  0  0  0
    2.6288   76.4127   82.2888 C   0  0  0  0  0  0  0  0  0  0  0  0
    0.8920   76.6084   80.4700 C   0  0  0  0  0  0  0  0  0  0  0  0
    1.2214   77.2167   79.4700 O   0  0  0  0  0  0  0  0  0  0  0  0
    0.0026   75.5967   80.3806 O   0  0  0  0  0  0  0  0  0  0  0  0
   -0.1864   75.5500   79.4200 H   0  0  0  0  0  0  0  0  0  0  0  0
    2.7459   70.6294   81.5705 C   0  0  0  0  0  0  0  0  0  0  0  0
    3.2532   69.8688   82.6347 C   0  0  0  0  0  0  0  0  0  0  0  0
    2.8213   68.5520   82.8343 C   0  0  0  0  0  0  0  0  0  0  0  0
    1.8824   67.9885   81.9733 C   0  0  0  0  0  0  0  0  0  0  0  0
    1.3548   66.3710   82.2228 Cl  0  0  0  0  0  0  0  0  0  0  0  0
    1.3698   68.7292   80.9120 C   0  0  0  0  0  0  0  0  0  0  0  0
    1.8004   70.0446   80.7115 C   0  0  0  0  0  0  0  0  0  0  0  0
  8  9  1  0  0  0
  9 10  2  0  0  0
 10 11  1  0  0  0
 11 12  2  0  0  0
 12 13  1  0  0  0
 13 15  1  0  0  0
 15 16  2  0  0  0
 15 17  1  0  0  0
 13 14  2  0  0  0
 14  1  1  0  0  0
  1  2  2  0  0  0
  2  3  1  0  0  0
  3  4  1  0  0  0
  4 19  1  0  0  0
 19 20  1  0  0  0
 20 21  2  0  0  0
 21 22  1  0  0  0
 22 23  1  0  0  0
 22 24  2  0  0  0
 24 25  1  0  0  0
  4  5  2  0  0  0
  5  6  1  0  0  0
  6  7  1  0  0  0
 14  9  1  0  0  0
  6  2  1  0  0  0
 25 19  2  0  0  0
 17 18  1  0  0  0
M  END
> <minimizedAffinity>
-0.79016

$$$$



 25 27  0  0  0  0  0  0  0  0999 V2000
    5.0420   77.1357   81.7867 N   0  0  0  0  0  0  0  0  0  0  0  0
    4.2560   76.1144   81.9445 C   0  0  0  0  0  0  0  0  0  0  0  0
    4.4816   74.5112   81.2458 S   0  0  0  0  0  0  0  0  0  0  0  0
    2.9327   74.0480   81.9390 C   0  0  0  0  0  0  0  0  0  0  0  0
    2.3263   74.9486   82.6576 N   0  0  0  0  0  0  0  0  0  0  0  0
    3.1001   76.0840   82.6960 N   0  0  0  0  0  0  0  0  0  0  0  0
    2.4746   77.2948   83.1851 C   0  0  0  0  0  0  0  0  0  0  0  0
    4.7131   77.6361   78.9868 C   0  0  0  0  0  0  0  0  0  0  0  0
    6.0455   77.2607   79.5785 C   0  0  0  0  0  0  0  0  0  0  0  0
    7.1624   77.1464   78.7358 C   0  0  0  0  0  0  0  0  0  0  0  0
    8.4041   76.7844   79.2501 C   0  0  0  0  0  0  0  0  0  0  0  0
    8.5423   76.5292   80.6123 C   0  0  0  0  0  0  0  0  0  0  0  0
    7.4395   76.6459   81.4763 C   0  0  0  0  0  0  0  0  0  0  0  0
    6.1833   77.0388   80.9685 C   0  0  0  0  0  0  0  0  0  0  0  0
    7.6254   76.3629   82.9247 C   0  0  0  0  0  0  0  0  0  0  0  0
    7.5062   75.3041   83.5106 O   0  0  0  0  0  0  0  0  0  0  0  0
    7.9679   77.4758   83.6077 O   0  0  0  0  0  0  0  0  0  0  0  0
    8.0839   77.1483   84.5242 H   0  0  0  0  0  0  0  0  0  0  0  0
    2.3665   72.6946   81.7013 C   0  0  0  0  0  0  0  0  0  0  0  0
    0.9969   72.4622   81.5046 C   0  0  0  0  0  0  0  0  0  0  0  0
    0.5227   71.1633   81.2845 C   0  0  0  0  0  0  0  0  0  0  0  0
    1.4120   70.0914   81.2603 C   0  0  0  0  0  0  0  0  0  0  0  0
    0.8247   68.4981   80.9893 Cl  0  0  0  0  0  0  0  0  0  0  0  0
    2.7737   70.3048   81.4547 C   0  0  0  0  0  0  0  0  0  0  0  0
    3.2488   71.6017   81.6746 C   0  0  0  0  0  0  0  0  0  0  0  0
  8  9  1  0  0  0
  9 10  2  0  0  0
 10 11  1  0  0  0
 11 12  2  0  0  0
 12 13  1  0  0  0
 13 15  1  0  0  0
 15 16  2  0  0  0
 15 17  1  0  0  0
 13 14  2  0  0  0
 14  1  1  0  0  0
  1  2  2  0  0  0
  2  3  1  0  0  0
  3  4  1  0  0  0
  4 19  1  0  0  0
 19 20  1  0  0  0
 20 21  2  0  0  0
 21 22  1  0  0  0
 22 23  1  0  0  0
 22 24  2  0  0  0
 24 25  1  0  0  0
  4  5  2  0  0  0
  5  6  1  0  0  0
  6  7  1  0  0  0
 14  9  1  0  0  0
  6  2  1  0  0  0
 25 19  2  0  0  0
 17 18  1  0  0  0
M  END
> <minimizedAffinity>
-0.76717

$$$$



 25 27  0  0  0  0  0  0  0  0999 V2000
    3.6969   73.9645   81.6579 N   0  0  0  0  0  0  0  0  0  0  0  0
    2.4887   74.0424   81.1889 C   0  0  0  0  0  0  0  0  0  0  0  0
    1.8229   75.3764   80.2474 S   0  0  0  0  0  0  0  0  0  0  0  0
    0.2686   74.5536   80.2774 C   0  0  0  0  0  0  0  0  0  0  0  0
    0.2380   73.3928   80.8664 N   0  0  0  0  0  0  0  0  0  0  0  0
    1.4976   73.0936   81.3283 N   0  0  0  0  0  0  0  0  0  0  0  0
    1.6149   71.9985   82.2682 C   0  0  0  0  0  0  0  0  0  0  0  0
    5.4979   73.7725   79.4403 C   0  0  0  0  0  0  0  0  0  0  0  0
    5.5225   74.9415   80.3885 C   0  0  0  0  0  0  0  0  0  0  0  0
    6.4580   75.9686   80.1868 C   0  0  0  0  0  0  0  0  0  0  0  0
    6.5170   77.0542   81.0558 C   0  0  0  0  0  0  0  0  0  0  0  0
    5.6437   77.1233   82.1386 C   0  0  0  0  0  0  0  0  0  0  0  0
    4.6931   76.1105   82.3553 C   0  0  0  0  0  0  0  0  0  0  0  0
    4.6075   75.0202   81.4642 C   0  0  0  0  0  0  0  0  0  0  0  0
    3.7790   76.2179   83.5238 C   0  0  0  0  0  0  0  0  0  0  0  0
    2.6523   76.6732   83.5642 O   0  0  0  0  0  0  0  0  0  0  0  0
    4.3475   75.7264   84.6453 O   0  0  0  0  0  0  0  0  0  0  0  0
    3.6419   75.8314   85.3175 H   0  0  0  0  0  0  0  0  0  0  0  0
   -0.9323   75.1720   79.6575 C   0  0  0  0  0  0  0  0  0  0  0  0
   -1.9445   74.4238   79.0379 C   0  0  0  0  0  0  0  0  0  0  0  0
   -3.0534   75.0637   78.4712 C   0  0  0  0  0  0  0  0  0  0  0  0
   -3.1570   76.4520   78.5197 C   0  0  0  0  0  0  0  0  0  0  0  0
   -4.5210   77.2333   77.8226 Cl  0  0  0  0  0  0  0  0  0  0  0  0
   -2.1610   77.2092   79.1299 C   0  0  0  0  0  0  0  0  0  0  0  0
   -1.0528   76.5712   79.6964 C   0  0  0  0  0  0  0  0  0  0  0  0
  8  9  1  0  0  0
  9 10  2  0  0  0
 10 11  1  0  0  0
 11 12  2  0  0  0
 12 13  1  0  0  0
 13 15  1  0  0  0
 15 16  2  0  0  0
 15 17  1  0  0  0
 13 14  2  0  0  0
 14  1  1  0  0  0
  1  2  2  0  0  0
  2  3  1  0  0  0
  3  4  1  0  0  0
  4 19  1  0  0  0
 19 20  1  0  0  0
 20 21  2  0  0  0
 21 22  1  0  0  0
 22 23  1  0  0  0
 22 24  2  0  0  0
 24 25  1  0  0  0
  4  5  2  0  0  0
  5  6  1  0  0  0
  6  7  1  0  0  0
 14  9  1  0  0  0
  6  2  1  0  0  0
 25 19  2  0  0  0
 17 18  1  0  0  0
M  END
> <minimizedAffinity>
-0.76569

$$$$
