


 38 41  0  0  0  0  0  0  0  0999 V2000
    2.2188   66.1419   84.4914 C   0  0  0  0  0  0  0  0  0  0  0  0
    1.7553   67.1353   83.6109 C   0  0  0  0  0  0  0  0  0  0  0  0
    2.6407   68.0689   83.0723 C   0  0  0  0  0  0  0  0  0  0  0  0
    3.9818   68.0659   83.4503 C   0  0  0  0  0  0  0  0  0  0  0  0
    4.4480   67.0958   84.3415 C   0  0  0  0  0  0  0  0  0  0  0  0
    3.5828   66.1205   84.8596 C   0  0  0  0  0  0  0  0  0  0  0  0
   -1.1367   62.5379   83.9940 C   0  0  0  0  0  0  0  0  0  0  0  0
   -1.8741   61.8709   84.9022 N   0  0  0  0  0  0  0  0  0  0  0  0
   -1.5060   62.4154   86.0893 N   0  0  0  0  0  0  0  0  0  0  0  0
   -2.1080   61.9471   87.3143 C   0  0  0  0  0  0  0  0  0  0  0  0
   -0.5644   63.3874   85.9602 C   0  0  0  0  0  0  0  0  0  0  0  0
    0.0885   64.1961   86.9222 C   0  0  0  0  0  0  0  0  0  0  0  0
   -0.0745   64.1421   88.1351 O   0  0  0  0  0  0  0  0  0  0  0  0
    0.9644   65.0724   86.3238 N   0  0  0  0  0  0  0  0  0  0  0  0
    1.2064   65.1321   84.9554 C   0  0  0  0  0  0  0  0  0  0  0  0
    0.6080   64.3750   84.0747 N   0  0  0  0  0  0  0  0  0  0  0  0
   -0.3113   63.4816   84.6254 C   0  0  0  0  0  0  0  0  0  0  0  0
    1.4944   65.6640   86.9509 H   0  0  0  0  0  0  0  0  0  0  0  0
   -1.2551   62.2386   82.5401 C   0  0  0  0  0  0  0  0  0  0  0  0
    1.0522   61.3276   82.0932 C   0  0  0  0  0  0  0  0  0  0  0  0
   -0.4348   61.0135   82.1344 C   0  0  0  0  0  0  0  0  0  0  0  0
    2.0376   69.3009   81.9352 S   0  0  0  0  0  0  0  0  0  0  0  0
    3.1528   70.1646   81.6083 O   0  0  0  0  0  0  0  0  0  0  0  0
    0.8144   69.8374   82.4915 O   0  0  0  0  0  0  0  0  0  0  0  0
    1.6549   68.3900   80.5553 N   0  0  0  0  0  0  0  0  0  0  0  0
    0.3452   68.6001   79.9025 C   0  0  0  0  0  0  0  0  0  0  0  0
   -0.5193   67.3497   79.9760 C   0  0  0  0  0  0  0  0  0  0  0  0
    0.1613   66.1245   79.3463 C   0  0  0  0  0  0  0  0  0  0  0  0
    1.6837   66.2952   79.2484 C   0  0  0  0  0  0  0  0  0  0  0  0
    2.2324   67.0290   80.4664 C   0  0  0  0  0  0  0  0  0  0  0  0
   -0.1998   64.8801   80.1475 C   0  0  0  0  0  0  0  0  0  0  0  0
   -0.6751   65.1223   81.4027 N   0  0  0  0  0  0  0  0  0  0  0  0
   -0.0612   63.7324   79.7417 O   0  0  0  0  0  0  0  0  0  0  0  0
   -0.9772   64.3235   81.9464 H   0  0  0  0  0  0  0  0  0  0  0  0
   -0.9489   66.0427   81.7181 H   0  0  0  0  0  0  0  0  0  0  0  0
    3.9899   65.1378   85.7264 O   0  0  0  0  0  0  0  0  0  0  0  0
    5.3728   65.0898   86.0855 C   0  0  0  0  0  0  0  0  0  0  0  0
    5.4760   65.4042   87.5671 C   0  0  0  0  0  0  0  0  0  0  0  0
 20 21  1  0  0  0
 21 19  1  0  0  0
 19  7  1  0  0  0
  7  8  2  0  0  0
  8  9  1  0  0  0
  9 10  1  0  0  0
  9 11  1  0  0  0
 11 12  1  0  0  0
 12 13  2  0  0  0
 12 14  1  0  0  0
 14 15  1  0  0  0
 15  1  1  0  0  0
  1  2  1  0  0  0
  2  3  2  0  0  0
  3 22  1  0  0  0
 22 23  2  0  0  0
 22 24  2  0  0  0
 22 25  1  0  0  0
 25 26  1  0  0  0
 26 27  1  0  0  0
 27 28  1  0  0  0
 28 31  1  0  0  0
 31 32  1  0  0  0
 31 33  2  0  0  0
 28 29  1  0  0  0
 29 30  1  0  0  0
  3  4  1  0  0  0
  4  5  2  0  0  0
  5  6  1  0  0  0
  6 36  1  0  0  0
 36 37  1  0  0  0
 37 38  1  0  0  0
 15 16  2  0  0  0
 16 17  1  0  0  0
 17  7  1  0  0  0
 17 11  2  0  0  0
  6  1  2  0  0  0
 30 25  1  0  0  0
 14 18  1  0  0  0
 32 34  1  0  0  0
 32 35  1  0  0  0
M  END
> <minimizedAffinity>
-10.09365

$$$$



 38 41  0  0  0  0  0  0  0  0999 V2000
    0.0727   63.4396   84.1624 C   0  0  0  0  0  0  0  0  0  0  0  0
    0.9120   64.4903   83.7520 C   0  0  0  0  0  0  0  0  0  0  0  0
    1.5763   65.2722   84.6971 C   0  0  0  0  0  0  0  0  0  0  0  0
    1.3657   65.0608   86.0581 C   0  0  0  0  0  0  0  0  0  0  0  0
    0.5166   64.0327   86.4760 C   0  0  0  0  0  0  0  0  0  0  0  0
   -0.1258   63.2063   85.5418 C   0  0  0  0  0  0  0  0  0  0  0  0
   -0.4498   61.6758   79.5677 C   0  0  0  0  0  0  0  0  0  0  0  0
   -1.3088   60.7794   79.0460 N   0  0  0  0  0  0  0  0  0  0  0  0
   -2.0833   60.4143   80.0987 N   0  0  0  0  0  0  0  0  0  0  0  0
   -3.1441   59.4538   79.9137 C   0  0  0  0  0  0  0  0  0  0  0  0
   -1.7380   61.0387   81.2559 C   0  0  0  0  0  0  0  0  0  0  0  0
   -2.2695   60.9501   82.5655 C   0  0  0  0  0  0  0  0  0  0  0  0
   -3.1888   60.2220   82.9196 O   0  0  0  0  0  0  0  0  0  0  0  0
   -1.6092   61.7940   83.4288 N   0  0  0  0  0  0  0  0  0  0  0  0
   -0.5348   62.6020   83.0719 C   0  0  0  0  0  0  0  0  0  0  0  0
   -0.0428   62.6702   81.8635 N   0  0  0  0  0  0  0  0  0  0  0  0
   -0.6917   61.8509   80.9393 C   0  0  0  0  0  0  0  0  0  0  0  0
   -1.9121   61.7635   84.3939 H   0  0  0  0  0  0  0  0  0  0  0  0
    0.5808   62.3352   78.7188 C   0  0  0  0  0  0  0  0  0  0  0  0
    0.4093   64.8467   78.8453 C   0  0  0  0  0  0  0  0  0  0  0  0
    0.0509   63.6030   78.0478 C   0  0  0  0  0  0  0  0  0  0  0  0
    2.6585   66.5796   84.1547 S   0  0  0  0  0  0  0  0  0  0  0  0
    1.9622   67.8302   84.3730 O   0  0  0  0  0  0  0  0  0  0  0  0
    3.1486   66.2158   82.8428 O   0  0  0  0  0  0  0  0  0  0  0  0
    3.9435   66.4926   85.2598 N   0  0  0  0  0  0  0  0  0  0  0  0
    4.6187   67.7427   85.6687 C   0  0  0  0  0  0  0  0  0  0  0  0
    6.0723   67.7620   85.2181 C   0  0  0  0  0  0  0  0  0  0  0  0
    6.8718   66.5645   85.7546 C   0  0  0  0  0  0  0  0  0  0  0  0
    5.9609   65.4033   86.1767 C   0  0  0  0  0  0  0  0  0  0  0  0
    4.7736   65.2662   85.2308 C   0  0  0  0  0  0  0  0  0  0  0  0
    7.8770   66.1169   84.7010 C   0  0  0  0  0  0  0  0  0  0  0  0
    8.6928   67.1029   84.2293 N   0  0  0  0  0  0  0  0  0  0  0  0
    7.9583   64.9752   84.2640 O   0  0  0  0  0  0  0  0  0  0  0  0
    9.4105   66.8341   83.5677 H   0  0  0  0  0  0  0  0  0  0  0  0
    8.7656   68.0114   84.6661 H   0  0  0  0  0  0  0  0  0  0  0  0
   -0.9581   62.1749   85.8969 O   0  0  0  0  0  0  0  0  0  0  0  0
   -1.4793   62.1604   87.2280 C   0  0  0  0  0  0  0  0  0  0  0  0
   -2.8011   62.9070   87.2143 C   0  0  0  0  0  0  0  0  0  0  0  0
 20 21  1  0  0  0
 21 19  1  0  0  0
 19  7  1  0  0  0
  7  8  2  0  0  0
  8  9  1  0  0  0
  9 10  1  0  0  0
  9 11  1  0  0  0
 11 12  1  0  0  0
 12 13  2  0  0  0
 12 14  1  0  0  0
 14 15  1  0  0  0
 15  1  1  0  0  0
  1  2  1  0  0  0
  2  3  2  0  0  0
  3 22  1  0  0  0
 22 23  2  0  0  0
 22 24  2  0  0  0
 22 25  1  0  0  0
 25 26  1  0  0  0
 26 27  1  0  0  0
 27 28  1  0  0  0
 28 31  1  0  0  0
 31 32  1  0  0  0
 31 33  2  0  0  0
 28 29  1  0  0  0
 29 30  1  0  0  0
  3  4  1  0  0  0
  4  5  2  0  0  0
  5  6  1  0  0  0
  6 36  1  0  0  0
 36 37  1  0  0  0
 37 38  1  0  0  0
 15 16  2  0  0  0
 16 17  1  0  0  0
 17  7  1  0  0  0
 17 11  2  0  0  0
  6  1  2  0  0  0
 30 25  1  0  0  0
 14 18  1  0  0  0
 32 34  1  0  0  0
 32 35  1  0  0  0
M  END
> <minimizedAffinity>
-9.79754

$$$$



 38 41  0  0  0  0  0  0  0  0999 V2000
    2.2181   66.3125   84.2627 C   0  0  0  0  0  0  0  0  0  0  0  0
    1.7578   67.1754   83.2525 C   0  0  0  0  0  0  0  0  0  0  0  0
    2.6110   68.1289   82.6971 C   0  0  0  0  0  0  0  0  0  0  0  0
    3.9088   68.2786   83.1813 C   0  0  0  0  0  0  0  0  0  0  0  0
    4.3689   67.4400   84.2000 C   0  0  0  0  0  0  0  0  0  0  0  0
    3.5410   66.4450   84.7410 C   0  0  0  0  0  0  0  0  0  0  0  0
   -1.0634   62.6352   83.8101 C   0  0  0  0  0  0  0  0  0  0  0  0
   -1.7454   61.9267   84.7300 N   0  0  0  0  0  0  0  0  0  0  0  0
   -1.3422   62.4512   85.9148 N   0  0  0  0  0  0  0  0  0  0  0  0
   -1.8809   61.9371   87.1508 C   0  0  0  0  0  0  0  0  0  0  0  0
   -0.4315   63.4505   85.7725 C   0  0  0  0  0  0  0  0  0  0  0  0
    0.2401   64.2519   86.7275 C   0  0  0  0  0  0  0  0  0  0  0  0
    0.1290   64.1638   87.9443 O   0  0  0  0  0  0  0  0  0  0  0  0
    1.0681   65.1654   86.1167 N   0  0  0  0  0  0  0  0  0  0  0  0
    1.2515   65.2654   84.7415 C   0  0  0  0  0  0  0  0  0  0  0  0
    0.6363   64.5147   83.8668 N   0  0  0  0  0  0  0  0  0  0  0  0
   -0.2365   63.5842   84.4313 C   0  0  0  0  0  0  0  0  0  0  0  0
    1.6086   65.7551   86.7366 H   0  0  0  0  0  0  0  0  0  0  0  0
   -1.2344   62.3689   82.3549 C   0  0  0  0  0  0  0  0  0  0  0  0
    1.0008   61.2980   81.8960 C   0  0  0  0  0  0  0  0  0  0  0  0
   -0.5065   61.0994   81.9110 C   0  0  0  0  0  0  0  0  0  0  0  0
    2.0161   69.1924   81.3971 S   0  0  0  0  0  0  0  0  0  0  0  0
    0.7801   68.6194   80.9069 O   0  0  0  0  0  0  0  0  0  0  0  0
    3.1278   69.4459   80.5064 O   0  0  0  0  0  0  0  0  0  0  0  0
    1.6406   70.6274   82.2218 N   0  0  0  0  0  0  0  0  0  0  0  0
    0.3010   71.2256   82.0390 C   0  0  0  0  0  0  0  0  0  0  0  0
    0.3881   72.5883   81.3668 C   0  0  0  0  0  0  0  0  0  0  0  0
    1.2729   73.5742   82.1452 C   0  0  0  0  0  0  0  0  0  0  0  0
    2.2359   72.8566   83.1012 C   0  0  0  0  0  0  0  0  0  0  0  0
    2.7576   71.5637   82.4852 C   0  0  0  0  0  0  0  0  0  0  0  0
    2.0329   74.4545   81.1611 C   0  0  0  0  0  0  0  0  0  0  0  0
    1.9301   74.0774   79.8545 N   0  0  0  0  0  0  0  0  0  0  0  0
    2.7180   75.4182   81.4821 O   0  0  0  0  0  0  0  0  0  0  0  0
    2.3765   74.6688   79.1646 H   0  0  0  0  0  0  0  0  0  0  0  0
    1.2604   73.3929   79.5315 H   0  0  0  0  0  0  0  0  0  0  0  0
    3.9456   65.5865   85.7319 O   0  0  0  0  0  0  0  0  0  0  0  0
    5.3343   65.2554   85.8079 C   0  0  0  0  0  0  0  0  0  0  0  0
    5.7601   65.3820   87.2596 C   0  0  0  0  0  0  0  0  0  0  0  0
 20 21  1  0  0  0
 21 19  1  0  0  0
 19  7  1  0  0  0
  7  8  2  0  0  0
  8  9  1  0  0  0
  9 10  1  0  0  0
  9 11  1  0  0  0
 11 12  1  0  0  0
 12 13  2  0  0  0
 12 14  1  0  0  0
 14 15  1  0  0  0
 15  1  1  0  0  0
  1  2  1  0  0  0
  2  3  2  0  0  0
  3 22  1  0  0  0
 22 23  2  0  0  0
 22 24  2  0  0  0
 22 25  1  0  0  0
 25 26  1  0  0  0
 26 27  1  0  0  0
 27 28  1  0  0  0
 28 31  1  0  0  0
 31 32  1  0  0  0
 31 33  2  0  0  0
 28 29  1  0  0  0
 29 30  1  0  0  0
  3  4  1  0  0  0
  4  5  2  0  0  0
  5  6  1  0  0  0
  6 36  1  0  0  0
 36 37  1  0  0  0
 37 38  1  0  0  0
 15 16  2  0  0  0
 16 17  1  0  0  0
 17  7  1  0  0  0
 17 11  2  0  0  0
  6  1  2  0  0  0
 30 25  1  0  0  0
 14 18  1  0  0  0
 32 34  1  0  0  0
 32 35  1  0  0  0
M  END
> <minimizedAffinity>
-9.61830

$$$$



 38 41  0  0  0  0  0  0  0  0999 V2000
    0.3682   64.2377   85.0743 C   0  0  0  0  0  0  0  0  0  0  0  0
   -0.2123   63.8690   83.8479 C   0  0  0  0  0  0  0  0  0  0  0  0
   -1.3631   63.0813   83.8213 C   0  0  0  0  0  0  0  0  0  0  0  0
   -1.9130   62.5990   85.0071 C   0  0  0  0  0  0  0  0  0  0  0  0
   -1.3309   62.9421   86.2303 C   0  0  0  0  0  0  0  0  0  0  0  0
   -0.1995   63.7702   86.2809 C   0  0  0  0  0  0  0  0  0  0  0  0
    2.9864   68.1472   83.5395 C   0  0  0  0  0  0  0  0  0  0  0  0
    4.2242   68.5742   83.8543 N   0  0  0  0  0  0  0  0  0  0  0  0
    4.6729   67.6548   84.7457 N   0  0  0  0  0  0  0  0  0  0  0  0
    5.9958   67.7820   85.3077 C   0  0  0  0  0  0  0  0  0  0  0  0
    3.7641   66.6778   85.0061 C   0  0  0  0  0  0  0  0  0  0  0  0
    3.8178   65.5485   85.8590 C   0  0  0  0  0  0  0  0  0  0  0  0
    4.7545   65.2420   86.5865 O   0  0  0  0  0  0  0  0  0  0  0  0
    2.6568   64.8136   85.7855 N   0  0  0  0  0  0  0  0  0  0  0  0
    1.5576   65.1543   85.0042 C   0  0  0  0  0  0  0  0  0  0  0  0
    1.5114   66.2042   84.2279 N   0  0  0  0  0  0  0  0  0  0  0  0
    2.6745   66.9744   84.2449 C   0  0  0  0  0  0  0  0  0  0  0  0
    2.6065   64.0056   86.3928 H   0  0  0  0  0  0  0  0  0  0  0  0
    2.1431   68.8912   82.5633 C   0  0  0  0  0  0  0  0  0  0  0  0
    1.8344   67.2508   80.6747 C   0  0  0  0  0  0  0  0  0  0  0  0
    2.4957   68.5468   81.1157 C   0  0  0  0  0  0  0  0  0  0  0  0
   -2.0995   62.6505   82.2570 S   0  0  0  0  0  0  0  0  0  0  0  0
   -3.0431   63.6973   81.9250 O   0  0  0  0  0  0  0  0  0  0  0  0
   -2.5170   61.2678   82.3445 O   0  0  0  0  0  0  0  0  0  0  0  0
   -0.7930   62.7579   81.1792 N   0  0  0  0  0  0  0  0  0  0  0  0
   -0.6152   63.9986   80.3951 C   0  0  0  0  0  0  0  0  0  0  0  0
   -0.7769   63.7413   78.9038 C   0  0  0  0  0  0  0  0  0  0  0  0
    0.1987   62.6759   78.3802 C   0  0  0  0  0  0  0  0  0  0  0  0
    0.7393   61.7834   79.5061 C   0  0  0  0  0  0  0  0  0  0  0  0
   -0.3387   61.4987   80.5453 C   0  0  0  0  0  0  0  0  0  0  0  0
   -0.4916   61.8448   77.3061 C   0  0  0  0  0  0  0  0  0  0  0  0
   -1.8535   61.9189   77.3087 N   0  0  0  0  0  0  0  0  0  0  0  0
    0.0945   61.1297   76.5023 O   0  0  0  0  0  0  0  0  0  0  0  0
   -2.3462   61.4237   76.5759 H   0  0  0  0  0  0  0  0  0  0  0  0
   -2.3650   62.6063   77.8445 H   0  0  0  0  0  0  0  0  0  0  0  0
    0.4036   64.1490   87.4537 O   0  0  0  0  0  0  0  0  0  0  0  0
   -0.2017   63.7402   88.6826 C   0  0  0  0  0  0  0  0  0  0  0  0
    0.5217   62.4942   89.1611 C   0  0  0  0  0  0  0  0  0  0  0  0
 20 21  1  0  0  0
 21 19  1  0  0  0
 19  7  1  0  0  0
  7  8  2  0  0  0
  8  9  1  0  0  0
  9 10  1  0  0  0
  9 11  1  0  0  0
 11 12  1  0  0  0
 12 13  2  0  0  0
 12 14  1  0  0  0
 14 15  1  0  0  0
 15  1  1  0  0  0
  1  2  1  0  0  0
  2  3  2  0  0  0
  3 22  1  0  0  0
 22 23  2  0  0  0
 22 24  2  0  0  0
 22 25  1  0  0  0
 25 26  1  0  0  0
 26 27  1  0  0  0
 27 28  1  0  0  0
 28 31  1  0  0  0
 31 32  1  0  0  0
 31 33  2  0  0  0
 28 29  1  0  0  0
 29 30  1  0  0  0
  3  4  1  0  0  0
  4  5  2  0  0  0
  5  6  1  0  0  0
  6 36  1  0  0  0
 36 37  1  0  0  0
 37 38  1  0  0  0
 15 16  2  0  0  0
 16 17  1  0  0  0
 17  7  1  0  0  0
 17 11  2  0  0  0
  6  1  2  0  0  0
 30 25  1  0  0  0
 14 18  1  0  0  0
 32 34  1  0  0  0
 32 35  1  0  0  0
M  END
> <minimizedAffinity>
-9.52664

$$$$



 38 41  0  0  0  0  0  0  0  0999 V2000
    0.2517   64.5111   82.9436 C   0  0  0  0  0  0  0  0  0  0  0  0
    1.1888   65.5593   82.9380 C   0  0  0  0  0  0  0  0  0  0  0  0
    1.7346   66.0233   84.1349 C   0  0  0  0  0  0  0  0  0  0  0  0
    1.3100   65.4961   85.3526 C   0  0  0  0  0  0  0  0  0  0  0  0
    0.3630   64.4686   85.3700 C   0  0  0  0  0  0  0  0  0  0  0  0
   -0.1648   63.9572   84.1749 C   0  0  0  0  0  0  0  0  0  0  0  0
   -2.6569   62.0518   79.7833 C   0  0  0  0  0  0  0  0  0  0  0  0
   -2.6240   61.9364   78.4421 N   0  0  0  0  0  0  0  0  0  0  0  0
   -1.5484   62.6774   78.0741 N   0  0  0  0  0  0  0  0  0  0  0  0
   -1.1882   62.7819   76.6807 C   0  0  0  0  0  0  0  0  0  0  0  0
   -0.9149   63.2565   79.1283 C   0  0  0  0  0  0  0  0  0  0  0  0
    0.2236   64.0963   79.1938 C   0  0  0  0  0  0  0  0  0  0  0  0
    0.8742   64.4996   78.2375 O   0  0  0  0  0  0  0  0  0  0  0  0
    0.5223   64.4292   80.4950 N   0  0  0  0  0  0  0  0  0  0  0  0
   -0.2184   64.0252   81.6009 C   0  0  0  0  0  0  0  0  0  0  0  0
   -1.2744   63.2591   81.5316 N   0  0  0  0  0  0  0  0  0  0  0  0
   -1.6096   62.8705   80.2342 C   0  0  0  0  0  0  0  0  0  0  0  0
    1.3071   65.0555   80.6215 H   0  0  0  0  0  0  0  0  0  0  0  0
   -3.7050   61.3641   80.5873 C   0  0  0  0  0  0  0  0  0  0  0  0
   -3.1569   60.2613   82.7865 C   0  0  0  0  0  0  0  0  0  0  0  0
   -3.1725   60.1059   81.2742 C   0  0  0  0  0  0  0  0  0  0  0  0
    2.9430   67.3324   84.1028 S   0  0  0  0  0  0  0  0  0  0  0  0
    2.3157   68.5082   84.6688 O   0  0  0  0  0  0  0  0  0  0  0  0
    3.5154   67.3567   82.7742 O   0  0  0  0  0  0  0  0  0  0  0  0
    4.1227   66.7877   85.1945 N   0  0  0  0  0  0  0  0  0  0  0  0
    4.8016   67.7740   86.0618 C   0  0  0  0  0  0  0  0  0  0  0  0
    6.2889   67.8575   85.7497 C   0  0  0  0  0  0  0  0  0  0  0  0
    6.9972   66.5009   85.8871 C   0  0  0  0  0  0  0  0  0  0  0  0
    6.0139   65.3246   85.8105 C   0  0  0  0  0  0  0  0  0  0  0  0
    4.9100   65.5982   84.7958 C   0  0  0  0  0  0  0  0  0  0  0  0
    8.0750   66.3844   84.8167 C   0  0  0  0  0  0  0  0  0  0  0  0
    8.1174   65.1833   84.1720 N   0  0  0  0  0  0  0  0  0  0  0  0
    8.8792   67.2683   84.5464 O   0  0  0  0  0  0  0  0  0  0  0  0
    8.7844   65.0857   83.4166 H   0  0  0  0  0  0  0  0  0  0  0  0
    7.3855   64.4909   84.2519 H   0  0  0  0  0  0  0  0  0  0  0  0
   -1.0858   62.9410   84.1335 O   0  0  0  0  0  0  0  0  0  0  0  0
   -1.3169   62.1950   85.3309 C   0  0  0  0  0  0  0  0  0  0  0  0
   -2.7168   62.5246   85.8171 C   0  0  0  0  0  0  0  0  0  0  0  0
 20 21  1  0  0  0
 21 19  1  0  0  0
 19  7  1  0  0  0
  7  8  2  0  0  0
  8  9  1  0  0  0
  9 10  1  0  0  0
  9 11  1  0  0  0
 11 12  1  0  0  0
 12 13  2  0  0  0
 12 14  1  0  0  0
 14 15  1  0  0  0
 15  1  1  0  0  0
  1  2  1  0  0  0
  2  3  2  0  0  0
  3 22  1  0  0  0
 22 23  2  0  0  0
 22 24  2  0  0  0
 22 25  1  0  0  0
 25 26  1  0  0  0
 26 27  1  0  0  0
 27 28  1  0  0  0
 28 31  1  0  0  0
 31 32  1  0  0  0
 31 33  2  0  0  0
 28 29  1  0  0  0
 29 30  1  0  0  0
  3  4  1  0  0  0
  4  5  2  0  0  0
  5  6  1  0  0  0
  6 36  1  0  0  0
 36 37  1  0  0  0
 37 38  1  0  0  0
 15 16  2  0  0  0
 16 17  1  0  0  0
 17  7  1  0  0  0
 17 11  2  0  0  0
  6  1  2  0  0  0
 30 25  1  0  0  0
 14 18  1  0  0  0
 32 34  1  0  0  0
 32 35  1  0  0  0
M  END
> <minimizedAffinity>
-9.31687

$$$$



 38 41  0  0  0  0  0  0  0  0999 V2000
    1.6889   65.7393   84.0544 C   0  0  0  0  0  0  0  0  0  0  0  0
    1.0261   65.9647   82.8350 C   0  0  0  0  0  0  0  0  0  0  0  0
    1.6137   66.7580   81.8495 C   0  0  0  0  0  0  0  0  0  0  0  0
    2.8342   67.3865   82.0875 C   0  0  0  0  0  0  0  0  0  0  0  0
    3.4908   67.1859   83.3046 C   0  0  0  0  0  0  0  0  0  0  0  0
    2.9380   66.3558   84.2914 C   0  0  0  0  0  0  0  0  0  0  0  0
   -1.6850   62.4478   85.5638 C   0  0  0  0  0  0  0  0  0  0  0  0
   -1.8570   61.8198   86.7426 N   0  0  0  0  0  0  0  0  0  0  0  0
   -0.8522   62.2970   87.5197 N   0  0  0  0  0  0  0  0  0  0  0  0
   -0.7206   61.8465   88.8842 C   0  0  0  0  0  0  0  0  0  0  0  0
   -0.0563   63.1892   86.8726 C   0  0  0  0  0  0  0  0  0  0  0  0
    1.0845   63.9119   87.2991 C   0  0  0  0  0  0  0  0  0  0  0  0
    1.6103   63.8372   88.4031 O   0  0  0  0  0  0  0  0  0  0  0  0
    1.5598   64.7277   86.2983 N   0  0  0  0  0  0  0  0  0  0  0  0
    1.0148   64.8059   85.0210 C   0  0  0  0  0  0  0  0  0  0  0  0
   -0.0316   64.1276   84.6312 N   0  0  0  0  0  0  0  0  0  0  0  0
   -0.5706   63.2998   85.6164 C   0  0  0  0  0  0  0  0  0  0  0  0
    2.3958   65.2542   86.5175 H   0  0  0  0  0  0  0  0  0  0  0  0
   -2.6075   62.2013   84.4211 C   0  0  0  0  0  0  0  0  0  0  0  0
   -1.9329   62.3909   82.0000 C   0  0  0  0  0  0  0  0  0  0  0  0
   -1.9027   61.5213   83.2467 C   0  0  0  0  0  0  0  0  0  0  0  0
    0.7700   67.0065   80.2999 S   0  0  0  0  0  0  0  0  0  0  0  0
   -0.5913   66.5453   80.4747 O   0  0  0  0  0  0  0  0  0  0  0  0
    1.6153   66.4641   79.2583 O   0  0  0  0  0  0  0  0  0  0  0  0
    0.7385   68.6967   80.1509 N   0  0  0  0  0  0  0  0  0  0  0  0
    1.9086   69.3829   79.5629 C   0  0  0  0  0  0  0  0  0  0  0  0
    2.5853   70.2945   80.5766 C   0  0  0  0  0  0  0  0  0  0  0  0
    1.6272   71.3478   81.1541 C   0  0  0  0  0  0  0  0  0  0  0  0
    0.1554   70.9483   80.9799 C   0  0  0  0  0  0  0  0  0  0  0  0
   -0.0313   69.4475   81.1695 C   0  0  0  0  0  0  0  0  0  0  0  0
    1.9612   71.5819   82.6220 C   0  0  0  0  0  0  0  0  0  0  0  0
    2.5789   70.5375   83.2446 N   0  0  0  0  0  0  0  0  0  0  0  0
    1.6865   72.6042   83.2389 O   0  0  0  0  0  0  0  0  0  0  0  0
    2.8658   70.6746   84.2058 H   0  0  0  0  0  0  0  0  0  0  0  0
    2.9594   69.7466   82.7435 H   0  0  0  0  0  0  0  0  0  0  0  0
    3.5457   66.1134   85.4974 O   0  0  0  0  0  0  0  0  0  0  0  0
    4.9601   65.9060   85.5070 C   0  0  0  0  0  0  0  0  0  0  0  0
    5.2651   64.8532   86.5574 C   0  0  0  0  0  0  0  0  0  0  0  0
 20 21  1  0  0  0
 21 19  1  0  0  0
 19  7  1  0  0  0
  7  8  2  0  0  0
  8  9  1  0  0  0
  9 10  1  0  0  0
  9 11  1  0  0  0
 11 12  1  0  0  0
 12 13  2  0  0  0
 12 14  1  0  0  0
 14 15  1  0  0  0
 15  1  1  0  0  0
  1  2  1  0  0  0
  2  3  2  0  0  0
  3 22  1  0  0  0
 22 23  2  0  0  0
 22 24  2  0  0  0
 22 25  1  0  0  0
 25 26  1  0  0  0
 26 27  1  0  0  0
 27 28  1  0  0  0
 28 31  1  0  0  0
 31 32  1  0  0  0
 31 33  2  0  0  0
 28 29  1  0  0  0
 29 30  1  0  0  0
  3  4  1  0  0  0
  4  5  2  0  0  0
  5  6  1  0  0  0
  6 36  1  0  0  0
 36 37  1  0  0  0
 37 38  1  0  0  0
 15 16  2  0  0  0
 16 17  1  0  0  0
 17  7  1  0  0  0
 17 11  2  0  0  0
  6  1  2  0  0  0
 30 25  1  0  0  0
 14 18  1  0  0  0
 32 34  1  0  0  0
 32 35  1  0  0  0
M  END
> <minimizedAffinity>
-9.30731

$$$$



 38 41  0  0  0  0  0  0  0  0999 V2000
    0.8991   65.8461   82.0231 C   0  0  0  0  0  0  0  0  0  0  0  0
    1.5377   66.5605   83.0521 C   0  0  0  0  0  0  0  0  0  0  0  0
    2.3085   67.6848   82.7564 C   0  0  0  0  0  0  0  0  0  0  0  0
    2.5055   68.0744   81.4333 C   0  0  0  0  0  0  0  0  0  0  0  0
    1.8925   67.3581   80.4018 C   0  0  0  0  0  0  0  0  0  0  0  0
    1.0769   66.2513   80.6812 C   0  0  0  0  0  0  0  0  0  0  0  0
   -1.2337   62.7146   85.2075 C   0  0  0  0  0  0  0  0  0  0  0  0
   -2.0875   61.6905   85.0186 N   0  0  0  0  0  0  0  0  0  0  0  0
   -2.2737   61.6605   83.6749 N   0  0  0  0  0  0  0  0  0  0  0  0
   -3.1394   60.6654   83.0895 C   0  0  0  0  0  0  0  0  0  0  0  0
   -1.5789   62.6277   83.0192 C   0  0  0  0  0  0  0  0  0  0  0  0
   -1.4904   62.9514   81.6434 C   0  0  0  0  0  0  0  0  0  0  0  0
   -2.0884   62.3896   80.7337 O   0  0  0  0  0  0  0  0  0  0  0  0
   -0.6367   64.0102   81.4351 N   0  0  0  0  0  0  0  0  0  0  0  0
    0.0251   64.6986   82.4464 C   0  0  0  0  0  0  0  0  0  0  0  0
   -0.0702   64.4010   83.7150 N   0  0  0  0  0  0  0  0  0  0  0  0
   -0.9063   63.3167   83.9823 C   0  0  0  0  0  0  0  0  0  0  0  0
   -0.5457   64.3220   80.4766 H   0  0  0  0  0  0  0  0  0  0  0  0
   -0.7617   63.0786   86.5721 C   0  0  0  0  0  0  0  0  0  0  0  0
   -0.0591   62.1800   88.8198 C   0  0  0  0  0  0  0  0  0  0  0  0
   -0.8311   61.8974   87.5409 C   0  0  0  0  0  0  0  0  0  0  0  0
    3.0847   68.5930   84.0783 S   0  0  0  0  0  0  0  0  0  0  0  0
    2.1778   68.5660   85.2067 O   0  0  0  0  0  0  0  0  0  0  0  0
    3.5510   69.8454   83.5237 O   0  0  0  0  0  0  0  0  0  0  0  0
    4.4303   67.6321   84.4610 N   0  0  0  0  0  0  0  0  0  0  0  0
    4.4421   66.2177   84.0310 C   0  0  0  0  0  0  0  0  0  0  0  0
    4.4457   65.2740   85.2251 C   0  0  0  0  0  0  0  0  0  0  0  0
    5.6347   65.5194   86.1669 C   0  0  0  0  0  0  0  0  0  0  0  0
    6.2380   66.9190   85.9842 C   0  0  0  0  0  0  0  0  0  0  0  0
    5.1515   67.9532   85.7142 C   0  0  0  0  0  0  0  0  0  0  0  0
    5.1907   65.2980   87.6073 C   0  0  0  0  0  0  0  0  0  0  0  0
    4.0559   64.5554   87.7514 N   0  0  0  0  0  0  0  0  0  0  0  0
    5.7651   65.7591   88.5863 O   0  0  0  0  0  0  0  0  0  0  0  0
    3.7589   64.3406   88.6951 H   0  0  0  0  0  0  0  0  0  0  0  0
    3.6421   64.0318   86.9924 H   0  0  0  0  0  0  0  0  0  0  0  0
    0.4408   65.5213   79.7091 O   0  0  0  0  0  0  0  0  0  0  0  0
    1.1796   65.1805   78.5337 C   0  0  0  0  0  0  0  0  0  0  0  0
    0.9980   63.6932   78.2894 C   0  0  0  0  0  0  0  0  0  0  0  0
 20 21  1  0  0  0
 21 19  1  0  0  0
 19  7  1  0  0  0
  7  8  2  0  0  0
  8  9  1  0  0  0
  9 10  1  0  0  0
  9 11  1  0  0  0
 11 12  1  0  0  0
 12 13  2  0  0  0
 12 14  1  0  0  0
 14 15  1  0  0  0
 15  1  1  0  0  0
  1  2  1  0  0  0
  2  3  2  0  0  0
  3 22  1  0  0  0
 22 23  2  0  0  0
 22 24  2  0  0  0
 22 25  1  0  0  0
 25 26  1  0  0  0
 26 27  1  0  0  0
 27 28  1  0  0  0
 28 31  1  0  0  0
 31 32  1  0  0  0
 31 33  2  0  0  0
 28 29  1  0  0  0
 29 30  1  0  0  0
  3  4  1  0  0  0
  4  5  2  0  0  0
  5  6  1  0  0  0
  6 36  1  0  0  0
 36 37  1  0  0  0
 37 38  1  0  0  0
 15 16  2  0  0  0
 16 17  1  0  0  0
 17  7  1  0  0  0
 17 11  2  0  0  0
  6  1  2  0  0  0
 30 25  1  0  0  0
 14 18  1  0  0  0
 32 34  1  0  0  0
 32 35  1  0  0  0
M  END
> <minimizedAffinity>
-9.24822

$$$$



 38 41  0  0  0  0  0  0  0  0999 V2000
   -0.0460   64.4218   81.5673 C   0  0  0  0  0  0  0  0  0  0  0  0
    0.2059   64.2995   80.1894 C   0  0  0  0  0  0  0  0  0  0  0  0
   -0.5747   63.4526   79.4026 C   0  0  0  0  0  0  0  0  0  0  0  0
   -1.5709   62.6715   79.9847 C   0  0  0  0  0  0  0  0  0  0  0  0
   -1.8148   62.7699   81.3571 C   0  0  0  0  0  0  0  0  0  0  0  0
   -1.0707   63.6490   82.1582 C   0  0  0  0  0  0  0  0  0  0  0  0
    2.0096   68.8304   82.4806 C   0  0  0  0  0  0  0  0  0  0  0  0
    2.8240   69.2504   83.4674 N   0  0  0  0  0  0  0  0  0  0  0  0
    3.0046   68.1475   84.2371 N   0  0  0  0  0  0  0  0  0  0  0  0
    3.8458   68.2157   85.4075 C   0  0  0  0  0  0  0  0  0  0  0  0
    2.3305   67.0605   83.7765 C   0  0  0  0  0  0  0  0  0  0  0  0
    2.2392   65.7350   84.2667 C   0  0  0  0  0  0  0  0  0  0  0  0
    2.7727   65.3070   85.2830 O   0  0  0  0  0  0  0  0  0  0  0  0
    1.4489   64.9566   83.4526 N   0  0  0  0  0  0  0  0  0  0  0  0
    0.7936   65.4189   82.3162 C   0  0  0  0  0  0  0  0  0  0  0  0
    0.8738   66.6465   81.8761 N   0  0  0  0  0  0  0  0  0  0  0  0
    1.6841   67.4758   82.6521 C   0  0  0  0  0  0  0  0  0  0  0  0
    1.3091   64.0012   83.7557 H   0  0  0  0  0  0  0  0  0  0  0  0
    1.5711   69.7574   81.4007 C   0  0  0  0  0  0  0  0  0  0  0  0
    3.6189   70.4831   80.1228 C   0  0  0  0  0  0  0  0  0  0  0  0
    2.3927   69.5843   80.1226 C   0  0  0  0  0  0  0  0  0  0  0  0
   -0.2577   63.3351   77.6532 S   0  0  0  0  0  0  0  0  0  0  0  0
    1.1533   63.0533   77.4916 O   0  0  0  0  0  0  0  0  0  0  0  0
   -0.8661   64.4892   77.0274 O   0  0  0  0  0  0  0  0  0  0  0  0
   -1.1266   61.9491   77.2015 N   0  0  0  0  0  0  0  0  0  0  0  0
   -2.4596   62.1128   76.5832 C   0  0  0  0  0  0  0  0  0  0  0  0
   -3.5553   61.5262   77.4616 C   0  0  0  0  0  0  0  0  0  0  0  0
   -3.3286   60.0386   77.7725 C   0  0  0  0  0  0  0  0  0  0  0  0
   -1.8651   59.6219   77.5704 C   0  0  0  0  0  0  0  0  0  0  0  0
   -0.9143   60.7281   78.0126 C   0  0  0  0  0  0  0  0  0  0  0  0
   -3.7905   59.7448   79.1942 C   0  0  0  0  0  0  0  0  0  0  0  0
   -4.5255   60.7354   79.7762 N   0  0  0  0  0  0  0  0  0  0  0  0
   -3.5188   58.7221   79.8118 O   0  0  0  0  0  0  0  0  0  0  0  0
   -4.8966   60.5553   80.7007 H   0  0  0  0  0  0  0  0  0  0  0  0
   -4.9002   61.5179   79.2579 H   0  0  0  0  0  0  0  0  0  0  0  0
   -1.2772   63.7952   83.5068 O   0  0  0  0  0  0  0  0  0  0  0  0
   -1.5405   62.6201   84.2771 C   0  0  0  0  0  0  0  0  0  0  0  0
   -0.5093   62.5568   85.3895 C   0  0  0  0  0  0  0  0  0  0  0  0
 20 21  1  0  0  0
 21 19  1  0  0  0
 19  7  1  0  0  0
  7  8  2  0  0  0
  8  9  1  0  0  0
  9 10  1  0  0  0
  9 11  1  0  0  0
 11 12  1  0  0  0
 12 13  2  0  0  0
 12 14  1  0  0  0
 14 15  1  0  0  0
 15  1  1  0  0  0
  1  2  1  0  0  0
  2  3  2  0  0  0
  3 22  1  0  0  0
 22 23  2  0  0  0
 22 24  2  0  0  0
 22 25  1  0  0  0
 25 26  1  0  0  0
 26 27  1  0  0  0
 27 28  1  0  0  0
 28 31  1  0  0  0
 31 32  1  0  0  0
 31 33  2  0  0  0
 28 29  1  0  0  0
 29 30  1  0  0  0
  3  4  1  0  0  0
  4  5  2  0  0  0
  5  6  1  0  0  0
  6 36  1  0  0  0
 36 37  1  0  0  0
 37 38  1  0  0  0
 15 16  2  0  0  0
 16 17  1  0  0  0
 17  7  1  0  0  0
 17 11  2  0  0  0
  6  1  2  0  0  0
 30 25  1  0  0  0
 14 18  1  0  0  0
 32 34  1  0  0  0
 32 35  1  0  0  0
M  END
> <minimizedAffinity>
-9.06760

$$$$



 38 41  0  0  0  0  0  0  0  0999 V2000
    0.1954   65.0435   81.1966 C   0  0  0  0  0  0  0  0  0  0  0  0
    0.2762   64.7529   79.8233 C   0  0  0  0  0  0  0  0  0  0  0  0
   -0.3403   63.6134   79.3065 C   0  0  0  0  0  0  0  0  0  0  0  0
   -0.9886   62.7183   80.1550 C   0  0  0  0  0  0  0  0  0  0  0  0
   -1.0558   62.9872   81.5246 C   0  0  0  0  0  0  0  0  0  0  0  0
   -0.4810   64.1506   82.0578 C   0  0  0  0  0  0  0  0  0  0  0  0
    3.3658   67.9097   83.6925 C   0  0  0  0  0  0  0  0  0  0  0  0
    3.5173   69.2470   83.7380 N   0  0  0  0  0  0  0  0  0  0  0  0
    2.5535   69.7161   82.9059 N   0  0  0  0  0  0  0  0  0  0  0  0
    2.4029   71.1372   82.7067 C   0  0  0  0  0  0  0  0  0  0  0  0
    1.8135   68.7275   82.3373 C   0  0  0  0  0  0  0  0  0  0  0  0
    0.7319   68.7710   81.4241 C   0  0  0  0  0  0  0  0  0  0  0  0
    0.2507   69.7828   80.9287 O   0  0  0  0  0  0  0  0  0  0  0  0
    0.2721   67.5064   81.1367 N   0  0  0  0  0  0  0  0  0  0  0  0
    0.8209   66.3344   81.6465 C   0  0  0  0  0  0  0  0  0  0  0  0
    1.8262   66.3018   82.4803 N   0  0  0  0  0  0  0  0  0  0  0  0
    2.3180   67.5607   82.8260 C   0  0  0  0  0  0  0  0  0  0  0  0
   -0.4821   67.4532   80.4640 H   0  0  0  0  0  0  0  0  0  0  0  0
    4.2436   67.0103   84.4914 C   0  0  0  0  0  0  0  0  0  0  0  0
    5.4178   67.8366   86.5629 C   0  0  0  0  0  0  0  0  0  0  0  0
    5.4667   67.7414   85.0464 C   0  0  0  0  0  0  0  0  0  0  0  0
   -0.2509   63.2797   77.5585 S   0  0  0  0  0  0  0  0  0  0  0  0
    1.0550   62.7113   77.2973 O   0  0  0  0  0  0  0  0  0  0  0  0
   -0.6993   64.4706   76.8699 O   0  0  0  0  0  0  0  0  0  0  0  0
   -1.4093   62.0580   77.3449 N   0  0  0  0  0  0  0  0  0  0  0  0
   -2.8399   62.4296   77.3109 C   0  0  0  0  0  0  0  0  0  0  0  0
   -3.5991   61.8244   78.4829 C   0  0  0  0  0  0  0  0  0  0  0  0
   -3.4822   60.2931   78.5336 C   0  0  0  0  0  0  0  0  0  0  0  0
   -2.2730   59.7788   77.7401 C   0  0  0  0  0  0  0  0  0  0  0  0
   -1.0819   60.7186   77.8858 C   0  0  0  0  0  0  0  0  0  0  0  0
   -3.4165   59.8405   79.9867 C   0  0  0  0  0  0  0  0  0  0  0  0
   -3.1010   58.5257   80.1656 N   0  0  0  0  0  0  0  0  0  0  0  0
   -3.6508   60.5639   80.9474 O   0  0  0  0  0  0  0  0  0  0  0  0
   -2.9943   58.1999   81.1182 H   0  0  0  0  0  0  0  0  0  0  0  0
   -2.7523   57.9384   79.4207 H   0  0  0  0  0  0  0  0  0  0  0  0
   -0.5294   64.4704   83.3913 O   0  0  0  0  0  0  0  0  0  0  0  0
    0.1689   63.6265   84.3100 C   0  0  0  0  0  0  0  0  0  0  0  0
    0.6272   64.4892   85.4721 C   0  0  0  0  0  0  0  0  0  0  0  0
 20 21  1  0  0  0
 21 19  1  0  0  0
 19  7  1  0  0  0
  7  8  2  0  0  0
  8  9  1  0  0  0
  9 10  1  0  0  0
  9 11  1  0  0  0
 11 12  1  0  0  0
 12 13  2  0  0  0
 12 14  1  0  0  0
 14 15  1  0  0  0
 15  1  1  0  0  0
  1  2  1  0  0  0
  2  3  2  0  0  0
  3 22  1  0  0  0
 22 23  2  0  0  0
 22 24  2  0  0  0
 22 25  1  0  0  0
 25 26  1  0  0  0
 26 27  1  0  0  0
 27 28  1  0  0  0
 28 31  1  0  0  0
 31 32  1  0  0  0
 31 33  2  0  0  0
 28 29  1  0  0  0
 29 30  1  0  0  0
  3  4  1  0  0  0
  4  5  2  0  0  0
  5  6  1  0  0  0
  6 36  1  0  0  0
 36 37  1  0  0  0
 37 38  1  0  0  0
 15 16  2  0  0  0
 16 17  1  0  0  0
 17  7  1  0  0  0
 17 11  2  0  0  0
  6  1  2  0  0  0
 30 25  1  0  0  0
 14 18  1  0  0  0
 32 34  1  0  0  0
 32 35  1  0  0  0
M  END
> <minimizedAffinity>
-9.05550

$$$$
