


 31 33  0  0  0  0  0  0  0  0999 V2000
    0.0460   63.8532   85.0846 C   0  0  0  0  0  0  0  0  0  0  0  0
   -0.7914   62.7263   85.0631 C   0  0  0  0  0  0  0  0  0  0  0  0
   -0.9932   62.0081   83.8828 C   0  0  0  0  0  0  0  0  0  0  0  0
   -0.3573   62.4194   82.7145 C   0  0  0  0  0  0  0  0  0  0  0  0
    0.4679   63.5459   82.7105 C   0  0  0  0  0  0  0  0  0  0  0  0
    0.6689   64.2830   83.8907 C   0  0  0  0  0  0  0  0  0  0  0  0
    1.5515   65.4939   83.7871 C   0  0  0  0  0  0  0  0  0  0  0  0
    1.2325   66.4766   83.0021 N   0  0  0  0  0  0  0  0  0  0  0  0
    2.0645   67.5739   82.9375 C   0  0  0  0  0  0  0  0  0  0  0  0
    3.1987   67.6717   83.6480 C   0  0  0  0  0  0  0  0  0  0  0  0
    3.5599   66.5684   84.5454 C   0  0  0  0  0  0  0  0  0  0  0  0
    4.5728   66.6070   85.2337 O   0  0  0  0  0  0  0  0  0  0  0  0
    2.6897   65.5237   84.5509 N   0  0  0  0  0  0  0  0  0  0  0  0
    2.9139   64.7504   85.1623 H   0  0  0  0  0  0  0  0  0  0  0  0
    1.5851   68.6563   81.9735 C   0  0  0  0  0  0  0  0  0  0  0  0
    1.3431   68.1900   80.5332 C   0  0  0  0  0  0  0  0  0  0  0  0
    2.5605   69.8370   81.9825 C   0  0  0  0  0  0  0  0  0  0  0  0
   -0.6078   61.5252   81.2000 S   0  0  0  0  0  0  0  0  0  0  0  0
    0.6873   61.4153   80.5659 O   0  0  0  0  0  0  0  0  0  0  0  0
   -1.3949   60.3491   81.5035 O   0  0  0  0  0  0  0  0  0  0  0  0
   -1.5738   62.5868   80.2914 N   0  0  0  0  0  0  0  0  0  0  0  0
   -2.9631   62.1407   79.9632 C   0  0  0  0  0  0  0  0  0  0  0  0
   -3.0163   61.2367   78.7130 C   0  0  0  0  0  0  0  0  0  0  0  0
   -2.3526   61.8411   77.5398 N   0  0  0  0  0  0  0  0  0  0  0  0
   -2.3703   60.9161   76.4072 C   0  0  0  0  0  0  0  0  0  0  0  0
   -0.9640   62.2106   77.8841 C   0  0  0  0  0  0  0  0  0  0  0  0
   -0.9131   63.1718   79.0850 C   0  0  0  0  0  0  0  0  0  0  0  0
    0.2588   64.5883   86.2245 O   0  0  0  0  0  0  0  0  0  0  0  0
   -0.3285   64.1005   87.4363 C   0  0  0  0  0  0  0  0  0  0  0  0
    0.1788   62.2707   89.0984 C   0  0  0  0  0  0  0  0  0  0  0  0
    0.7574   63.3526   88.2038 C   0  0  0  0  0  0  0  0  0  0  0  0
 30 31  1  0  0  0
 31 29  1  0  0  0
 29 28  1  0  0  0
 28  1  1  0  0  0
  1  2  1  0  0  0
  2  3  2  0  0  0
  3  4  1  0  0  0
  4 18  1  0  0  0
 18 19  2  0  0  0
 18 20  2  0  0  0
 18 21  1  0  0  0
 21 22  1  0  0  0
 22 23  1  0  0  0
 23 24  1  0  0  0
 24 25  1  0  0  0
 24 26  1  0  0  0
 26 27  1  0  0  0
  4  5  2  0  0  0
  5  6  1  0  0  0
  6  7  1  0  0  0
  7  8  2  0  0  0
  8  9  1  0  0  0
  9 15  1  0  0  0
 15 16  1  0  0  0
 15 17  1  0  0  0
  9 10  2  0  0  0
 10 11  1  0  0  0
 11 12  2  0  0  0
 11 13  1  0  0  0
  6  1  2  0  0  0
 13  7  1  0  0  0
 27 21  1  0  0  0
 13 14  1  0  0  0
M  END
> <minimizedAffinity>
-1.46038

$$$$



 31 33  0  0  0  0  0  0  0  0999 V2000
    0.1279   63.8424   85.1326 C   0  0  0  0  0  0  0  0  0  0  0  0
   -0.7159   62.7206   85.0965 C   0  0  0  0  0  0  0  0  0  0  0  0
   -0.9226   62.0195   83.9068 C   0  0  0  0  0  0  0  0  0  0  0  0
   -0.2852   62.4429   82.7437 C   0  0  0  0  0  0  0  0  0  0  0  0
    0.5463   63.5648   82.7543 C   0  0  0  0  0  0  0  0  0  0  0  0
    0.7524   64.2847   83.9441 C   0  0  0  0  0  0  0  0  0  0  0  0
    1.6416   65.4919   83.8562 C   0  0  0  0  0  0  0  0  0  0  0  0
    2.7094   65.5786   84.5885 N   0  0  0  0  0  0  0  0  0  0  0  0
    3.5042   66.6994   84.4764 C   0  0  0  0  0  0  0  0  0  0  0  0
    3.2207   67.7140   83.6450 C   0  0  0  0  0  0  0  0  0  0  0  0
    2.0202   67.6176   82.8067 C   0  0  0  0  0  0  0  0  0  0  0  0
    1.7183   68.5025   82.0150 O   0  0  0  0  0  0  0  0  0  0  0  0
    1.2899   66.4835   82.9772 N   0  0  0  0  0  0  0  0  0  0  0  0
    0.4580   66.3908   82.4101 H   0  0  0  0  0  0  0  0  0  0  0  0
    4.7236   66.6860   85.3947 C   0  0  0  0  0  0  0  0  0  0  0  0
    6.0710   66.9062   84.6974 C   0  0  0  0  0  0  0  0  0  0  0  0
    4.7600   65.3842   86.2005 C   0  0  0  0  0  0  0  0  0  0  0  0
   -0.5417   61.5707   81.2174 S   0  0  0  0  0  0  0  0  0  0  0  0
    0.7503   61.4727   80.5752 O   0  0  0  0  0  0  0  0  0  0  0  0
   -1.3249   60.3886   81.5076 O   0  0  0  0  0  0  0  0  0  0  0  0
   -1.5145   62.6436   80.3296 N   0  0  0  0  0  0  0  0  0  0  0  0
   -2.8989   62.1928   79.9875 C   0  0  0  0  0  0  0  0  0  0  0  0
   -2.9408   61.3162   78.7176 C   0  0  0  0  0  0  0  0  0  0  0  0
   -2.2791   61.9519   77.5599 N   0  0  0  0  0  0  0  0  0  0  0  0
   -2.2855   61.0520   76.4072 C   0  0  0  0  0  0  0  0  0  0  0  0
   -0.8947   62.3259   77.9164 C   0  0  0  0  0  0  0  0  0  0  0  0
   -0.8556   63.2607   79.1383 C   0  0  0  0  0  0  0  0  0  0  0  0
    0.3455   64.5608   86.2821 O   0  0  0  0  0  0  0  0  0  0  0  0
   -0.2871   64.0895   87.4775 C   0  0  0  0  0  0  0  0  0  0  0  0
    0.1434   62.2466   89.1467 C   0  0  0  0  0  0  0  0  0  0  0  0
    0.7630   63.3319   88.2843 C   0  0  0  0  0  0  0  0  0  0  0  0
 30 31  1  0  0  0
 31 29  1  0  0  0
 29 28  1  0  0  0
 28  1  1  0  0  0
  1  2  1  0  0  0
  2  3  2  0  0  0
  3  4  1  0  0  0
  4 18  1  0  0  0
 18 19  2  0  0  0
 18 20  2  0  0  0
 18 21  1  0  0  0
 21 22  1  0  0  0
 22 23  1  0  0  0
 23 24  1  0  0  0
 24 25  1  0  0  0
 24 26  1  0  0  0
 26 27  1  0  0  0
  4  5  2  0  0  0
  5  6  1  0  0  0
  6  7  1  0  0  0
  7  8  2  0  0  0
  8  9  1  0  0  0
  9 15  1  0  0  0
 15 16  1  0  0  0
 15 17  1  0  0  0
  9 10  2  0  0  0
 10 11  1  0  0  0
 11 12  2  0  0  0
 11 13  1  0  0  0
  6  1  2  0  0  0
 13  7  1  0  0  0
 27 21  1  0  0  0
 13 14  1  0  0  0
M  END
> <minimizedAffinity>
-1.44605

$$$$



 31 33  0  0  0  0  0  0  0  0999 V2000
    0.0455   63.7114   82.8245 C   0  0  0  0  0  0  0  0  0  0  0  0
    0.8022   64.7037   83.4683 C   0  0  0  0  0  0  0  0  0  0  0  0
    1.0956   65.9082   82.8259 C   0  0  0  0  0  0  0  0  0  0  0  0
    0.6334   66.1229   81.5303 C   0  0  0  0  0  0  0  0  0  0  0  0
   -0.1081   65.1434   80.8663 C   0  0  0  0  0  0  0  0  0  0  0  0
   -0.3995   63.9224   81.4996 C   0  0  0  0  0  0  0  0  0  0  0  0
   -1.1802   62.9183   80.7008 C   0  0  0  0  0  0  0  0  0  0  0  0
   -0.7395   62.5029   79.5532 N   0  0  0  0  0  0  0  0  0  0  0  0
   -1.4809   61.5765   78.8512 C   0  0  0  0  0  0  0  0  0  0  0  0
   -2.6470   61.0857   79.2987 C   0  0  0  0  0  0  0  0  0  0  0  0
   -3.1458   61.5436   80.6005 C   0  0  0  0  0  0  0  0  0  0  0  0
   -4.1941   61.1185   81.0711 O   0  0  0  0  0  0  0  0  0  0  0  0
   -2.3587   62.4572   81.2285 N   0  0  0  0  0  0  0  0  0  0  0  0
   -2.6784   62.7883   82.1287 H   0  0  0  0  0  0  0  0  0  0  0  0
   -0.8620   61.1750   77.5147 C   0  0  0  0  0  0  0  0  0  0  0  0
   -0.9428   62.2356   76.4106 C   0  0  0  0  0  0  0  0  0  0  0  0
   -1.4793   59.8625   77.0232 C   0  0  0  0  0  0  0  0  0  0  0  0
    1.0033   67.6446   80.6915 S   0  0  0  0  0  0  0  0  0  0  0  0
    2.2645   67.4461   80.0123 O   0  0  0  0  0  0  0  0  0  0  0  0
   -0.1815   68.0515   79.9664 O   0  0  0  0  0  0  0  0  0  0  0  0
    1.2375   68.7340   81.9738 N   0  0  0  0  0  0  0  0  0  0  0  0
    0.5632   70.0653   81.8757 C   0  0  0  0  0  0  0  0  0  0  0  0
    1.3736   71.0811   81.0424 C   0  0  0  0  0  0  0  0  0  0  0  0
    2.7704   71.2166   81.5038 N   0  0  0  0  0  0  0  0  0  0  0  0
    3.5097   72.1349   80.6385 C   0  0  0  0  0  0  0  0  0  0  0  0
    3.4218   69.8905   81.5271 C   0  0  0  0  0  0  0  0  0  0  0  0
    2.6554   68.8967   82.4179 C   0  0  0  0  0  0  0  0  0  0  0  0
   -0.2527   62.5119   83.4223 O   0  0  0  0  0  0  0  0  0  0  0  0
   -0.1675   62.4542   84.8509 C   0  0  0  0  0  0  0  0  0  0  0  0
   -1.6365   62.1717   86.8831 C   0  0  0  0  0  0  0  0  0  0  0  0
   -1.5918   62.4796   85.3969 C   0  0  0  0  0  0  0  0  0  0  0  0
 30 31  1  0  0  0
 31 29  1  0  0  0
 29 28  1  0  0  0
 28  1  1  0  0  0
  1  2  1  0  0  0
  2  3  2  0  0  0
  3  4  1  0  0  0
  4 18  1  0  0  0
 18 19  2  0  0  0
 18 20  2  0  0  0
 18 21  1  0  0  0
 21 22  1  0  0  0
 22 23  1  0  0  0
 23 24  1  0  0  0
 24 25  1  0  0  0
 24 26  1  0  0  0
 26 27  1  0  0  0
  4  5  2  0  0  0
  5  6  1  0  0  0
  6  7  1  0  0  0
  7  8  2  0  0  0
  8  9  1  0  0  0
  9 15  1  0  0  0
 15 16  1  0  0  0
 15 17  1  0  0  0
  9 10  2  0  0  0
 10 11  1  0  0  0
 11 12  2  0  0  0
 11 13  1  0  0  0
  6  1  2  0  0  0
 13  7  1  0  0  0
 27 21  1  0  0  0
 13 14  1  0  0  0
M  END
> <minimizedAffinity>
-1.43976

$$$$



 31 33  0  0  0  0  0  0  0  0999 V2000
    2.7586   67.7295   83.1191 C   0  0  0  0  0  0  0  0  0  0  0  0
    2.3344   66.4279   83.4315 C   0  0  0  0  0  0  0  0  0  0  0  0
    1.3978   65.7701   82.6317 C   0  0  0  0  0  0  0  0  0  0  0  0
    0.8782   66.4171   81.5137 C   0  0  0  0  0  0  0  0  0  0  0  0
    1.2754   67.7169   81.1934 C   0  0  0  0  0  0  0  0  0  0  0  0
    2.2092   68.3928   81.9983 C   0  0  0  0  0  0  0  0  0  0  0  0
    2.5584   69.7960   81.5925 C   0  0  0  0  0  0  0  0  0  0  0  0
    1.7972   70.7897   81.9347 N   0  0  0  0  0  0  0  0  0  0  0  0
    2.1529   72.0644   81.5485 C   0  0  0  0  0  0  0  0  0  0  0  0
    3.2528   72.3270   80.8259 C   0  0  0  0  0  0  0  0  0  0  0  0
    4.1233   71.2090   80.4445 C   0  0  0  0  0  0  0  0  0  0  0  0
    5.1507   71.3869   79.8012 O   0  0  0  0  0  0  0  0  0  0  0  0
    3.7029   69.9852   80.8617 N   0  0  0  0  0  0  0  0  0  0  0  0
    4.2857   69.1971   80.6139 H   0  0  0  0  0  0  0  0  0  0  0  0
    1.1738   73.1434   82.0041 C   0  0  0  0  0  0  0  0  0  0  0  0
   -0.0076   73.3964   81.0604 C   0  0  0  0  0  0  0  0  0  0  0  0
    1.9214   74.4540   82.2667 C   0  0  0  0  0  0  0  0  0  0  0  0
   -0.3213   65.6016   80.4879 S   0  0  0  0  0  0  0  0  0  0  0  0
   -1.3478   65.0977   81.3732 O   0  0  0  0  0  0  0  0  0  0  0  0
   -0.6472   66.4905   79.3931 O   0  0  0  0  0  0  0  0  0  0  0  0
    0.5525   64.2876   79.8588 N   0  0  0  0  0  0  0  0  0  0  0  0
    0.7157   64.2193   78.3737 C   0  0  0  0  0  0  0  0  0  0  0  0
   -0.4987   63.5743   77.6722 C   0  0  0  0  0  0  0  0  0  0  0  0
   -0.8538   62.2563   78.2369 N   0  0  0  0  0  0  0  0  0  0  0  0
   -2.0499   61.7242   77.5852 C   0  0  0  0  0  0  0  0  0  0  0  0
   -1.0687   62.3763   79.6939 C   0  0  0  0  0  0  0  0  0  0  0  0
    0.1694   62.9502   80.4054 C   0  0  0  0  0  0  0  0  0  0  0  0
    3.6698   68.4094   83.8889 O   0  0  0  0  0  0  0  0  0  0  0  0
    4.2949   67.6852   84.9549 C   0  0  0  0  0  0  0  0  0  0  0  0
    6.5367   66.7763   85.6733 C   0  0  0  0  0  0  0  0  0  0  0  0
    5.7740   67.5445   84.6084 C   0  0  0  0  0  0  0  0  0  0  0  0
 30 31  1  0  0  0
 31 29  1  0  0  0
 29 28  1  0  0  0
 28  1  1  0  0  0
  1  2  1  0  0  0
  2  3  2  0  0  0
  3  4  1  0  0  0
  4 18  1  0  0  0
 18 19  2  0  0  0
 18 20  2  0  0  0
 18 21  1  0  0  0
 21 22  1  0  0  0
 22 23  1  0  0  0
 23 24  1  0  0  0
 24 25  1  0  0  0
 24 26  1  0  0  0
 26 27  1  0  0  0
  4  5  2  0  0  0
  5  6  1  0  0  0
  6  7  1  0  0  0
  7  8  2  0  0  0
  8  9  1  0  0  0
  9 15  1  0  0  0
 15 16  1  0  0  0
 15 17  1  0  0  0
  9 10  2  0  0  0
 10 11  1  0  0  0
 11 12  2  0  0  0
 11 13  1  0  0  0
  6  1  2  0  0  0
 13  7  1  0  0  0
 27 21  1  0  0  0
 13 14  1  0  0  0
M  END
> <minimizedAffinity>
-1.38708

$$$$



 31 33  0  0  0  0  0  0  0  0999 V2000
    0.0575   64.1938   83.6570 C   0  0  0  0  0  0  0  0  0  0  0  0
   -0.7328   63.0896   83.2995 C   0  0  0  0  0  0  0  0  0  0  0  0
   -0.8363   62.6862   81.9668 C   0  0  0  0  0  0  0  0  0  0  0  0
   -0.1488   63.3919   80.9830 C   0  0  0  0  0  0  0  0  0  0  0  0
    0.6309   64.5018   81.3150 C   0  0  0  0  0  0  0  0  0  0  0  0
    0.7329   64.9235   82.6523 C   0  0  0  0  0  0  0  0  0  0  0  0
    1.5724   66.1413   82.9129 C   0  0  0  0  0  0  0  0  0  0  0  0
    2.5002   66.1204   83.8200 N   0  0  0  0  0  0  0  0  0  0  0  0
    3.2542   67.2558   84.0271 C   0  0  0  0  0  0  0  0  0  0  0  0
    3.0688   68.3904   83.3348 C   0  0  0  0  0  0  0  0  0  0  0  0
    2.0282   68.4174   82.3006 C   0  0  0  0  0  0  0  0  0  0  0  0
    1.8238   69.4173   81.6228 O   0  0  0  0  0  0  0  0  0  0  0  0
    1.3286   67.2603   82.1590 N   0  0  0  0  0  0  0  0  0  0  0  0
    0.6064   67.2511   81.4516 H   0  0  0  0  0  0  0  0  0  0  0  0
    4.3049   67.1075   85.1246 C   0  0  0  0  0  0  0  0  0  0  0  0
    5.6703   67.7309   84.8126 C   0  0  0  0  0  0  0  0  0  0  0  0
    4.4774   65.6303   85.4904 C   0  0  0  0  0  0  0  0  0  0  0  0
   -0.2742   62.9010   79.2803 S   0  0  0  0  0  0  0  0  0  0  0  0
   -0.0631   64.0934   78.4898 O   0  0  0  0  0  0  0  0  0  0  0  0
    0.5488   61.7248   79.0953 O   0  0  0  0  0  0  0  0  0  0  0  0
   -1.9015   62.4336   79.1421 N   0  0  0  0  0  0  0  0  0  0  0  0
   -2.2770   61.0874   79.6747 C   0  0  0  0  0  0  0  0  0  0  0  0
   -2.0052   59.9525   78.6642 C   0  0  0  0  0  0  0  0  0  0  0  0
   -2.6197   60.2008   77.3441 N   0  0  0  0  0  0  0  0  0  0  0  0
   -2.2727   59.1326   76.4075 C   0  0  0  0  0  0  0  0  0  0  0  0
   -2.1760   61.5102   76.8225 C   0  0  0  0  0  0  0  0  0  0  0  0
   -2.5133   62.6533   77.7962 C   0  0  0  0  0  0  0  0  0  0  0  0
    0.1737   64.6239   84.9557 O   0  0  0  0  0  0  0  0  0  0  0  0
    0.5083   63.6413   85.9425 C   0  0  0  0  0  0  0  0  0  0  0  0
   -0.3477   62.6509   88.0999 C   0  0  0  0  0  0  0  0  0  0  0  0
   -0.6544   63.5657   86.9274 C   0  0  0  0  0  0  0  0  0  0  0  0
 30 31  1  0  0  0
 31 29  1  0  0  0
 29 28  1  0  0  0
 28  1  1  0  0  0
  1  2  1  0  0  0
  2  3  2  0  0  0
  3  4  1  0  0  0
  4 18  1  0  0  0
 18 19  2  0  0  0
 18 20  2  0  0  0
 18 21  1  0  0  0
 21 22  1  0  0  0
 22 23  1  0  0  0
 23 24  1  0  0  0
 24 25  1  0  0  0
 24 26  1  0  0  0
 26 27  1  0  0  0
  4  5  2  0  0  0
  5  6  1  0  0  0
  6  7  1  0  0  0
  7  8  2  0  0  0
  8  9  1  0  0  0
  9 15  1  0  0  0
 15 16  1  0  0  0
 15 17  1  0  0  0
  9 10  2  0  0  0
 10 11  1  0  0  0
 11 12  2  0  0  0
 11 13  1  0  0  0
  6  1  2  0  0  0
 13  7  1  0  0  0
 27 21  1  0  0  0
 13 14  1  0  0  0
M  END
> <minimizedAffinity>
-1.34840

$$$$



 31 33  0  0  0  0  0  0  0  0999 V2000
    0.2215   64.1176   82.2306 C   0  0  0  0  0  0  0  0  0  0  0  0
    0.8526   65.1123   82.9947 C   0  0  0  0  0  0  0  0  0  0  0  0
    1.0786   66.3845   82.4654 C   0  0  0  0  0  0  0  0  0  0  0  0
    0.6750   66.6651   81.1628 C   0  0  0  0  0  0  0  0  0  0  0  0
    0.0591   65.6859   80.3806 C   0  0  0  0  0  0  0  0  0  0  0  0
   -0.1631   64.3984   80.8997 C   0  0  0  0  0  0  0  0  0  0  0  0
   -0.8081   63.4024   79.9790 C   0  0  0  0  0  0  0  0  0  0  0  0
   -1.7546   62.6252   80.4079 N   0  0  0  0  0  0  0  0  0  0  0  0
   -2.3267   61.7273   79.5321 C   0  0  0  0  0  0  0  0  0  0  0  0
   -1.9444   61.6142   78.2506 C   0  0  0  0  0  0  0  0  0  0  0  0
   -0.8817   62.4973   77.7567 C   0  0  0  0  0  0  0  0  0  0  0  0
   -0.5021   62.4547   76.5925 O   0  0  0  0  0  0  0  0  0  0  0  0
   -0.3688   63.3521   78.6812 N   0  0  0  0  0  0  0  0  0  0  0  0
    0.3641   63.9734   78.3666 H   0  0  0  0  0  0  0  0  0  0  0  0
   -3.4204   60.8656   80.1580 C   0  0  0  0  0  0  0  0  0  0  0  0
   -3.2651   60.5992   81.6598 C   0  0  0  0  0  0  0  0  0  0  0  0
   -3.5403   59.5387   79.4027 C   0  0  0  0  0  0  0  0  0  0  0  0
    0.9613   68.2744   80.4670 S   0  0  0  0  0  0  0  0  0  0  0  0
    2.1232   68.1552   79.6143 O   0  0  0  0  0  0  0  0  0  0  0  0
   -0.2985   68.7659   79.9511 O   0  0  0  0  0  0  0  0  0  0  0  0
    1.3736   69.2048   81.8272 N   0  0  0  0  0  0  0  0  0  0  0  0
    0.6325   70.4876   82.0322 C   0  0  0  0  0  0  0  0  0  0  0  0
    1.2314   71.6554   81.2194 C   0  0  0  0  0  0  0  0  0  0  0  0
    2.6809   71.8277   81.4460 N   0  0  0  0  0  0  0  0  0  0  0  0
    3.2087   72.8982   80.6010 C   0  0  0  0  0  0  0  0  0  0  0  0
    3.3858   70.5581   81.1730 C   0  0  0  0  0  0  0  0  0  0  0  0
    2.8395   69.4078   82.0372 C   0  0  0  0  0  0  0  0  0  0  0  0
   -0.0072   62.8537   82.7157 O   0  0  0  0  0  0  0  0  0  0  0  0
    0.0959   62.6682   84.1321 C   0  0  0  0  0  0  0  0  0  0  0  0
   -1.4908   62.5515   86.0909 C   0  0  0  0  0  0  0  0  0  0  0  0
   -1.2645   62.1928   84.6328 C   0  0  0  0  0  0  0  0  0  0  0  0
 30 31  1  0  0  0
 31 29  1  0  0  0
 29 28  1  0  0  0
 28  1  1  0  0  0
  1  2  1  0  0  0
  2  3  2  0  0  0
  3  4  1  0  0  0
  4 18  1  0  0  0
 18 19  2  0  0  0
 18 20  2  0  0  0
 18 21  1  0  0  0
 21 22  1  0  0  0
 22 23  1  0  0  0
 23 24  1  0  0  0
 24 25  1  0  0  0
 24 26  1  0  0  0
 26 27  1  0  0  0
  4  5  2  0  0  0
  5  6  1  0  0  0
  6  7  1  0  0  0
  7  8  2  0  0  0
  8  9  1  0  0  0
  9 15  1  0  0  0
 15 16  1  0  0  0
 15 17  1  0  0  0
  9 10  2  0  0  0
 10 11  1  0  0  0
 11 12  2  0  0  0
 11 13  1  0  0  0
  6  1  2  0  0  0
 13  7  1  0  0  0
 27 21  1  0  0  0
 13 14  1  0  0  0
M  END
> <minimizedAffinity>
-1.32254

$$$$



 31 33  0  0  0  0  0  0  0  0999 V2000
    2.6281   74.6647   81.8057 C   0  0  0  0  0  0  0  0  0  0  0  0
    1.5055   73.8349   81.9574 C   0  0  0  0  0  0  0  0  0  0  0  0
    1.5987   72.4591   81.7375 C   0  0  0  0  0  0  0  0  0  0  0  0
    2.8202   71.9078   81.3602 C   0  0  0  0  0  0  0  0  0  0  0  0
    3.9454   72.7171   81.1894 C   0  0  0  0  0  0  0  0  0  0  0  0
    3.8600   74.1049   81.3970 C   0  0  0  0  0  0  0  0  0  0  0  0
    5.1133   74.8996   81.1655 C   0  0  0  0  0  0  0  0  0  0  0  0
    5.5144   75.1611   79.9595 N   0  0  0  0  0  0  0  0  0  0  0  0
    6.6666   75.8980   79.7864 C   0  0  0  0  0  0  0  0  0  0  0  0
    7.4008   76.3551   80.8125 C   0  0  0  0  0  0  0  0  0  0  0  0
    6.9471   76.0716   82.1789 C   0  0  0  0  0  0  0  0  0  0  0  0
    7.5639   76.4777   83.1565 O   0  0  0  0  0  0  0  0  0  0  0  0
    5.8048   75.3392   82.2648 N   0  0  0  0  0  0  0  0  0  0  0  0
    5.4689   75.1311   83.1954 H   0  0  0  0  0  0  0  0  0  0  0  0
    7.0369   76.1304   78.3237 C   0  0  0  0  0  0  0  0  0  0  0  0
    6.7705   74.9481   77.3848 C   0  0  0  0  0  0  0  0  0  0  0  0
    8.5022   76.5626   78.2152 C   0  0  0  0  0  0  0  0  0  0  0  0
    2.9583   70.1612   81.0665 S   0  0  0  0  0  0  0  0  0  0  0  0
    2.8414   69.9719   79.6376 O   0  0  0  0  0  0  0  0  0  0  0  0
    4.1130   69.6784   81.7936 O   0  0  0  0  0  0  0  0  0  0  0  0
    1.5655   69.5421   81.8166 N   0  0  0  0  0  0  0  0  0  0  0  0
    1.7451   68.3934   82.7574 C   0  0  0  0  0  0  0  0  0  0  0  0
    1.7947   67.0327   82.0300 C   0  0  0  0  0  0  0  0  0  0  0  0
    0.6406   66.8197   81.1329 N   0  0  0  0  0  0  0  0  0  0  0  0
    0.7737   65.5509   80.4181 C   0  0  0  0  0  0  0  0  0  0  0  0
    0.5335   67.9424   80.1781 C   0  0  0  0  0  0  0  0  0  0  0  0
    0.4089   69.2944   80.9028 C   0  0  0  0  0  0  0  0  0  0  0  0
    2.5699   76.0221   82.0038 O   0  0  0  0  0  0  0  0  0  0  0  0
    1.5006   76.5190   82.8168 C   0  0  0  0  0  0  0  0  0  0  0  0
    2.1723   78.1761   84.5975 C   0  0  0  0  0  0  0  0  0  0  0  0
    1.8077   77.9788   83.1367 C   0  0  0  0  0  0  0  0  0  0  0  0
 30 31  1  0  0  0
 31 29  1  0  0  0
 29 28  1  0  0  0
 28  1  1  0  0  0
  1  2  1  0  0  0
  2  3  2  0  0  0
  3  4  1  0  0  0
  4 18  1  0  0  0
 18 19  2  0  0  0
 18 20  2  0  0  0
 18 21  1  0  0  0
 21 22  1  0  0  0
 22 23  1  0  0  0
 23 24  1  0  0  0
 24 25  1  0  0  0
 24 26  1  0  0  0
 26 27  1  0  0  0
  4  5  2  0  0  0
  5  6  1  0  0  0
  6  7  1  0  0  0
  7  8  2  0  0  0
  8  9  1  0  0  0
  9 15  1  0  0  0
 15 16  1  0  0  0
 15 17  1  0  0  0
  9 10  2  0  0  0
 10 11  1  0  0  0
 11 12  2  0  0  0
 11 13  1  0  0  0
  6  1  2  0  0  0
 13  7  1  0  0  0
 27 21  1  0  0  0
 13 14  1  0  0  0
M  END
> <minimizedAffinity>
-1.27160

$$$$



 31 33  0  0  0  0  0  0  0  0999 V2000
    2.9502   66.8663   83.7939 C   0  0  0  0  0  0  0  0  0  0  0  0
    3.6727   68.0684   83.7252 C   0  0  0  0  0  0  0  0  0  0  0  0
    3.2808   69.0893   82.8570 C   0  0  0  0  0  0  0  0  0  0  0  0
    2.1616   68.9081   82.0489 C   0  0  0  0  0  0  0  0  0  0  0  0
    1.4376   67.7147   82.0908 C   0  0  0  0  0  0  0  0  0  0  0  0
    1.8302   66.6759   82.9530 C   0  0  0  0  0  0  0  0  0  0  0  0
    1.0081   65.4196   82.9128 C   0  0  0  0  0  0  0  0  0  0  0  0
    0.8064   64.7996   81.7908 N   0  0  0  0  0  0  0  0  0  0  0  0
    0.0511   63.6464   81.7941 C   0  0  0  0  0  0  0  0  0  0  0  0
   -0.4938   63.1349   82.9088 C   0  0  0  0  0  0  0  0  0  0  0  0
   -0.2609   63.8254   84.1823 C   0  0  0  0  0  0  0  0  0  0  0  0
   -0.7160   63.3975   85.2363 O   0  0  0  0  0  0  0  0  0  0  0  0
    0.4916   64.9544   84.0946 N   0  0  0  0  0  0  0  0  0  0  0  0
    0.6689   65.4490   84.9584 H   0  0  0  0  0  0  0  0  0  0  0  0
   -0.1206   63.0169   80.4140 C   0  0  0  0  0  0  0  0  0  0  0  0
   -0.2678   64.0097   79.2551 C   0  0  0  0  0  0  0  0  0  0  0  0
   -1.3054   62.0465   80.4230 C   0  0  0  0  0  0  0  0  0  0  0  0
    1.6513   70.1906   80.9305 S   0  0  0  0  0  0  0  0  0  0  0  0
    2.8326   70.5990   80.2032 O   0  0  0  0  0  0  0  0  0  0  0  0
    0.4672   69.7301   80.2371 O   0  0  0  0  0  0  0  0  0  0  0  0
    1.1937   71.4454   81.9803 N   0  0  0  0  0  0  0  0  0  0  0  0
   -0.1568   72.0544   81.7751 C   0  0  0  0  0  0  0  0  0  0  0  0
   -0.1554   73.1479   80.6856 C   0  0  0  0  0  0  0  0  0  0  0  0
    0.8740   74.1827   80.9132 N   0  0  0  0  0  0  0  0  0  0  0  0
    0.8783   75.1518   79.8179 C   0  0  0  0  0  0  0  0  0  0  0  0
    2.2017   73.5485   81.0479 C   0  0  0  0  0  0  0  0  0  0  0  0
    2.2227   72.5102   82.1837 C   0  0  0  0  0  0  0  0  0  0  0  0
    3.3132   65.8383   84.6284 O   0  0  0  0  0  0  0  0  0  0  0  0
    4.6985   65.7377   84.9780 C   0  0  0  0  0  0  0  0  0  0  0  0
    5.9314   65.8861   87.1747 C   0  0  0  0  0  0  0  0  0  0  0  0
    4.7730   65.2545   86.4231 C   0  0  0  0  0  0  0  0  0  0  0  0
 30 31  1  0  0  0
 31 29  1  0  0  0
 29 28  1  0  0  0
 28  1  1  0  0  0
  1  2  1  0  0  0
  2  3  2  0  0  0
  3  4  1  0  0  0
  4 18  1  0  0  0
 18 19  2  0  0  0
 18 20  2  0  0  0
 18 21  1  0  0  0
 21 22  1  0  0  0
 22 23  1  0  0  0
 23 24  1  0  0  0
 24 25  1  0  0  0
 24 26  1  0  0  0
 26 27  1  0  0  0
  4  5  2  0  0  0
  5  6  1  0  0  0
  6  7  1  0  0  0
  7  8  2  0  0  0
  8  9  1  0  0  0
  9 15  1  0  0  0
 15 16  1  0  0  0
 15 17  1  0  0  0
  9 10  2  0  0  0
 10 11  1  0  0  0
 11 12  2  0  0  0
 11 13  1  0  0  0
  6  1  2  0  0  0
 13  7  1  0  0  0
 27 21  1  0  0  0
 13 14  1  0  0  0
M  END
> <minimizedAffinity>
-1.26916

$$$$



 31 33  0  0  0  0  0  0  0  0999 V2000
    2.6288   74.7214   81.8498 C   0  0  0  0  0  0  0  0  0  0  0  0
    1.5595   73.8652   82.1584 C   0  0  0  0  0  0  0  0  0  0  0  0
    1.6538   72.4915   81.9264 C   0  0  0  0  0  0  0  0  0  0  0  0
    2.8225   71.9688   81.3792 C   0  0  0  0  0  0  0  0  0  0  0  0
    3.8921   72.8045   81.0512 C   0  0  0  0  0  0  0  0  0  0  0  0
    3.8035   74.1904   81.2701 C   0  0  0  0  0  0  0  0  0  0  0  0
    4.9917   75.0144   80.8639 C   0  0  0  0  0  0  0  0  0  0  0  0
    5.8130   75.4721   81.7582 N   0  0  0  0  0  0  0  0  0  0  0  0
    6.8956   76.2200   81.3469 C   0  0  0  0  0  0  0  0  0  0  0  0
    7.1383   76.5038   80.0579 C   0  0  0  0  0  0  0  0  0  0  0  0
    6.2191   75.9805   79.0409 C   0  0  0  0  0  0  0  0  0  0  0  0
    6.3975   76.1898   77.8469 O   0  0  0  0  0  0  0  0  0  0  0  0
    5.1771   75.2548   79.5269 N   0  0  0  0  0  0  0  0  0  0  0  0
    4.5292   74.8808   78.8469 H   0  0  0  0  0  0  0  0  0  0  0  0
    7.7803   76.7071   82.4918 C   0  0  0  0  0  0  0  0  0  0  0  0
    7.2687   77.9482   83.2322 C   0  0  0  0  0  0  0  0  0  0  0  0
    9.2054   76.9514   81.9870 C   0  0  0  0  0  0  0  0  0  0  0  0
    2.9597   70.2253   81.0674 S   0  0  0  0  0  0  0  0  0  0  0  0
    2.8394   70.0505   79.6369 O   0  0  0  0  0  0  0  0  0  0  0  0
    4.1161   69.7350   81.7868 O   0  0  0  0  0  0  0  0  0  0  0  0
    1.5686   69.5986   81.8144 N   0  0  0  0  0  0  0  0  0  0  0  0
    1.7527   68.4526   82.7575 C   0  0  0  0  0  0  0  0  0  0  0  0
    1.8129   67.0911   82.0325 C   0  0  0  0  0  0  0  0  0  0  0  0
    0.6628   66.8694   81.1323 N   0  0  0  0  0  0  0  0  0  0  0  0
    0.8060   65.6003   80.4199 C   0  0  0  0  0  0  0  0  0  0  0  0
    0.5515   67.9899   80.1755 C   0  0  0  0  0  0  0  0  0  0  0  0
    0.4163   69.3422   80.8976 C   0  0  0  0  0  0  0  0  0  0  0  0
    2.5664   76.0775   82.0554 O   0  0  0  0  0  0  0  0  0  0  0  0
    1.4740   76.5705   82.8395 C   0  0  0  0  0  0  0  0  0  0  0  0
    1.4041   78.6375   84.2854 C   0  0  0  0  0  0  0  0  0  0  0  0
    2.0649   77.2912   84.0474 C   0  0  0  0  0  0  0  0  0  0  0  0
 30 31  1  0  0  0
 31 29  1  0  0  0
 29 28  1  0  0  0
 28  1  1  0  0  0
  1  2  1  0  0  0
  2  3  2  0  0  0
  3  4  1  0  0  0
  4 18  1  0  0  0
 18 19  2  0  0  0
 18 20  2  0  0  0
 18 21  1  0  0  0
 21 22  1  0  0  0
 22 23  1  0  0  0
 23 24  1  0  0  0
 24 25  1  0  0  0
 24 26  1  0  0  0
 26 27  1  0  0  0
  4  5  2  0  0  0
  5  6  1  0  0  0
  6  7  1  0  0  0
  7  8  2  0  0  0
  8  9  1  0  0  0
  9 15  1  0  0  0
 15 16  1  0  0  0
 15 17  1  0  0  0
  9 10  2  0  0  0
 10 11  1  0  0  0
 11 12  2  0  0  0
 11 13  1  0  0  0
  6  1  2  0  0  0
 13  7  1  0  0  0
 27 21  1  0  0  0
 13 14  1  0  0  0
M  END
> <minimizedAffinity>
-1.25998

$$$$
