


 21 23  0  0  0  0  0  0  0  0999 V2000
    0.6396   65.3543   81.4884 C   0  0  0  0  0  0  0  0  0  0  0  0
    0.8862   65.5571   82.7970 N   0  0  0  0  0  0  0  0  0  0  0  0
    0.3632   64.4630   83.4042 N   0  0  0  0  0  0  0  0  0  0  0  0
    0.4394   64.3309   84.8391 C   0  0  0  0  0  0  0  0  0  0  0  0
   -0.1984   63.5858   82.5304 C   0  0  0  0  0  0  0  0  0  0  0  0
   -0.8494   62.3455   82.7344 C   0  0  0  0  0  0  0  0  0  0  0  0
   -1.0523   61.8072   83.8163 O   0  0  0  0  0  0  0  0  0  0  0  0
   -1.2563   61.7858   81.5437 N   0  0  0  0  0  0  0  0  0  0  0  0
   -1.0686   62.3891   80.3021 C   0  0  0  0  0  0  0  0  0  0  0  0
   -0.4858   63.5411   80.1180 N   0  0  0  0  0  0  0  0  0  0  0  0
   -0.0335   64.1373   81.2958 C   0  0  0  0  0  0  0  0  0  0  0  0
   -1.7735   60.9257   81.6363 H   0  0  0  0  0  0  0  0  0  0  0  0
   -1.6048   61.6377   79.1328 C   0  0  0  0  0  0  0  0  0  0  0  0
   -0.9833   61.6896   77.8782 C   0  0  0  0  0  0  0  0  0  0  0  0
   -1.5148   60.9680   76.8063 C   0  0  0  0  0  0  0  0  0  0  0  0
   -2.6670   60.2015   76.9808 C   0  0  0  0  0  0  0  0  0  0  0  0
   -3.2973   60.1601   78.2236 C   0  0  0  0  0  0  0  0  0  0  0  0
   -2.7711   60.8800   79.2974 C   0  0  0  0  0  0  0  0  0  0  0  0
    1.0625   66.3506   80.4656 C   0  0  0  0  0  0  0  0  0  0  0  0
    1.8771   68.6672   81.0349 C   0  0  0  0  0  0  0  0  0  0  0  0
    0.6601   67.7755   80.8484 C   0  0  0  0  0  0  0  0  0  0  0  0
 20 21  1  0  0  0
 21 19  1  0  0  0
 19  1  1  0  0  0
  1  2  2  0  0  0
  2  3  1  0  0  0
  3  4  1  0  0  0
  3  5  1  0  0  0
  5  6  1  0  0  0
  6  7  2  0  0  0
  6  8  1  0  0  0
  8  9  1  0  0  0
  9 13  1  0  0  0
 13 14  2  0  0  0
 14 15  1  0  0  0
 15 16  2  0  0  0
 16 17  1  0  0  0
 17 18  2  0  0  0
  9 10  2  0  0  0
 10 11  1  0  0  0
 11  1  1  0  0  0
 11  5  2  0  0  0
 18 13  1  0  0  0
  8 12  1  0  0  0
M  END
> <minimizedAffinity>
-1.34493

$$$$



 21 23  0  0  0  0  0  0  0  0999 V2000
   -0.3257   63.3210   83.2386 C   0  0  0  0  0  0  0  0  0  0  0  0
    0.3824   64.4017   83.6190 N   0  0  0  0  0  0  0  0  0  0  0  0
    0.6940   65.0188   82.4521 N   0  0  0  0  0  0  0  0  0  0  0  0
    1.4682   66.2364   82.4663 C   0  0  0  0  0  0  0  0  0  0  0  0
    0.2099   64.3696   81.3601 C   0  0  0  0  0  0  0  0  0  0  0  0
    0.3070   64.6582   79.9776 C   0  0  0  0  0  0  0  0  0  0  0  0
    0.9018   65.6065   79.4792 O   0  0  0  0  0  0  0  0  0  0  0  0
   -0.3556   63.7203   79.2173 N   0  0  0  0  0  0  0  0  0  0  0  0
   -1.0126   62.6150   79.7533 C   0  0  0  0  0  0  0  0  0  0  0  0
   -1.0843   62.3404   81.0261 N   0  0  0  0  0  0  0  0  0  0  0  0
   -0.4470   63.2772   81.8406 C   0  0  0  0  0  0  0  0  0  0  0  0
   -0.2727   63.8493   78.2211 H   0  0  0  0  0  0  0  0  0  0  0  0
   -1.6465   61.6997   78.7636 C   0  0  0  0  0  0  0  0  0  0  0  0
   -2.7329   60.8844   79.1073 C   0  0  0  0  0  0  0  0  0  0  0  0
   -3.3025   60.0413   78.1498 C   0  0  0  0  0  0  0  0  0  0  0  0
   -2.7874   60.0043   76.8541 C   0  0  0  0  0  0  0  0  0  0  0  0
   -1.6964   60.8021   76.5126 C   0  0  0  0  0  0  0  0  0  0  0  0
   -1.1229   61.6453   77.4657 C   0  0  0  0  0  0  0  0  0  0  0  0
   -0.8600   62.3620   84.2448 C   0  0  0  0  0  0  0  0  0  0  0  0
   -1.7625   62.2531   86.5960 C   0  0  0  0  0  0  0  0  0  0  0  0
   -0.7432   62.8995   85.6718 C   0  0  0  0  0  0  0  0  0  0  0  0
 20 21  1  0  0  0
 21 19  1  0  0  0
 19  1  1  0  0  0
  1  2  2  0  0  0
  2  3  1  0  0  0
  3  4  1  0  0  0
  3  5  1  0  0  0
  5  6  1  0  0  0
  6  7  2  0  0  0
  6  8  1  0  0  0
  8  9  1  0  0  0
  9 13  1  0  0  0
 13 14  2  0  0  0
 14 15  1  0  0  0
 15 16  2  0  0  0
 16 17  1  0  0  0
 17 18  2  0  0  0
  9 10  2  0  0  0
 10 11  1  0  0  0
 11  1  1  0  0  0
 11  5  2  0  0  0
 18 13  1  0  0  0
  8 12  1  0  0  0
M  END
> <minimizedAffinity>
-1.32406

$$$$



 21 23  0  0  0  0  0  0  0  0999 V2000
    1.2275   65.6171   82.9610 C   0  0  0  0  0  0  0  0  0  0  0  0
    1.4448   65.7042   84.2874 N   0  0  0  0  0  0  0  0  0  0  0  0
    0.8161   64.6157   84.7965 N   0  0  0  0  0  0  0  0  0  0  0  0
    0.8327   64.3748   86.2191 C   0  0  0  0  0  0  0  0  0  0  0  0
    0.2164   63.8527   83.8443 C   0  0  0  0  0  0  0  0  0  0  0  0
   -0.5378   62.6584   83.9369 C   0  0  0  0  0  0  0  0  0  0  0  0
   -0.8195   62.0619   84.9696 O   0  0  0  0  0  0  0  0  0  0  0  0
   -0.9473   62.2212   82.6968 N   0  0  0  0  0  0  0  0  0  0  0  0
   -0.6700   62.8949   81.5094 C   0  0  0  0  0  0  0  0  0  0  0  0
    0.0085   64.0056   81.4282 N   0  0  0  0  0  0  0  0  0  0  0  0
    0.4666   64.4763   82.6594 C   0  0  0  0  0  0  0  0  0  0  0  0
   -1.5342   61.4019   82.7105 H   0  0  0  0  0  0  0  0  0  0  0  0
   -1.2243   62.2762   80.2728 C   0  0  0  0  0  0  0  0  0  0  0  0
   -2.2429   61.3155   80.3247 C   0  0  0  0  0  0  0  0  0  0  0  0
   -2.7390   60.7605   79.1423 C   0  0  0  0  0  0  0  0  0  0  0  0
   -2.2174   61.1557   77.9105 C   0  0  0  0  0  0  0  0  0  0  0  0
   -1.1929   62.0995   77.8556 C   0  0  0  0  0  0  0  0  0  0  0  0
   -0.6929   62.6562   79.0339 C   0  0  0  0  0  0  0  0  0  0  0  0
    1.7628   66.6465   82.0275 C   0  0  0  0  0  0  0  0  0  0  0  0
    2.3217   69.1043   81.9949 C   0  0  0  0  0  0  0  0  0  0  0  0
    2.4379   67.8011   82.7690 C   0  0  0  0  0  0  0  0  0  0  0  0
 20 21  1  0  0  0
 21 19  1  0  0  0
 19  1  1  0  0  0
  1  2  2  0  0  0
  2  3  1  0  0  0
  3  4  1  0  0  0
  3  5  1  0  0  0
  5  6  1  0  0  0
  6  7  2  0  0  0
  6  8  1  0  0  0
  8  9  1  0  0  0
  9 13  1  0  0  0
 13 14  2  0  0  0
 14 15  1  0  0  0
 15 16  2  0  0  0
 16 17  1  0  0  0
 17 18  2  0  0  0
  9 10  2  0  0  0
 10 11  1  0  0  0
 11  1  1  0  0  0
 11  5  2  0  0  0
 18 13  1  0  0  0
  8 12  1  0  0  0
M  END
> <minimizedAffinity>
-1.20419

$$$$



 21 23  0  0  0  0  0  0  0  0999 V2000
    2.5866   67.3161   83.2313 C   0  0  0  0  0  0  0  0  0  0  0  0
    2.7454   68.6457   83.0855 N   0  0  0  0  0  0  0  0  0  0  0  0
    1.8971   68.9702   82.0782 N   0  0  0  0  0  0  0  0  0  0  0  0
    1.7974   70.3396   81.6345 C   0  0  0  0  0  0  0  0  0  0  0  0
    1.2154   67.9001   81.5899 C   0  0  0  0  0  0  0  0  0  0  0  0
    0.2556   67.7920   80.5550 C   0  0  0  0  0  0  0  0  0  0  0  0
   -0.1520   68.7085   79.8512 O   0  0  0  0  0  0  0  0  0  0  0  0
   -0.1857   66.4957   80.4078 N   0  0  0  0  0  0  0  0  0  0  0  0
    0.2827   65.4284   81.1708 C   0  0  0  0  0  0  0  0  0  0  0  0
    1.1813   65.5269   82.1107 N   0  0  0  0  0  0  0  0  0  0  0  0
    1.6423   66.8282   82.3141 C   0  0  0  0  0  0  0  0  0  0  0  0
   -0.8320   66.3535   79.6475 H   0  0  0  0  0  0  0  0  0  0  0  0
   -0.2982   64.0968   80.8413 C   0  0  0  0  0  0  0  0  0  0  0  0
   -0.6458   63.1789   81.8411 C   0  0  0  0  0  0  0  0  0  0  0  0
   -1.1913   61.9408   81.4921 C   0  0  0  0  0  0  0  0  0  0  0  0
   -1.3841   61.6138   80.1500 C   0  0  0  0  0  0  0  0  0  0  0  0
   -1.0247   62.5181   79.1516 C   0  0  0  0  0  0  0  0  0  0  0  0
   -0.4784   63.7558   79.4948 C   0  0  0  0  0  0  0  0  0  0  0  0
    3.3598   66.5599   84.2550 C   0  0  0  0  0  0  0  0  0  0  0  0
    5.4484   66.5659   85.6665 C   0  0  0  0  0  0  0  0  0  0  0  0
    4.4430   67.4185   84.9093 C   0  0  0  0  0  0  0  0  0  0  0  0
 20 21  1  0  0  0
 21 19  1  0  0  0
 19  1  1  0  0  0
  1  2  2  0  0  0
  2  3  1  0  0  0
  3  4  1  0  0  0
  3  5  1  0  0  0
  5  6  1  0  0  0
  6  7  2  0  0  0
  6  8  1  0  0  0
  8  9  1  0  0  0
  9 13  1  0  0  0
 13 14  2  0  0  0
 14 15  1  0  0  0
 15 16  2  0  0  0
 16 17  1  0  0  0
 17 18  2  0  0  0
  9 10  2  0  0  0
 10 11  1  0  0  0
 11  1  1  0  0  0
 11  5  2  0  0  0
 18 13  1  0  0  0
  8 12  1  0  0  0
M  END
> <minimizedAffinity>
-1.14070

$$$$



 21 23  0  0  0  0  0  0  0  0999 V2000
   -1.1918   62.0426   80.0061 C   0  0  0  0  0  0  0  0  0  0  0  0
   -0.8019   62.7269   78.9134 N   0  0  0  0  0  0  0  0  0  0  0  0
   -0.2148   63.8418   79.4151 N   0  0  0  0  0  0  0  0  0  0  0  0
    0.3314   64.8326   78.5194 C   0  0  0  0  0  0  0  0  0  0  0  0
   -0.2210   63.8820   80.7740 C   0  0  0  0  0  0  0  0  0  0  0  0
    0.2699   64.8468   81.6862 C   0  0  0  0  0  0  0  0  0  0  0  0
    0.8150   65.9043   81.3931 O   0  0  0  0  0  0  0  0  0  0  0  0
    0.0555   64.4639   82.9916 N   0  0  0  0  0  0  0  0  0  0  0  0
   -0.5898   63.2839   83.3549 C   0  0  0  0  0  0  0  0  0  0  0  0
   -1.0587   62.4056   82.5127 N   0  0  0  0  0  0  0  0  0  0  0  0
   -0.8434   62.7385   81.1747 C   0  0  0  0  0  0  0  0  0  0  0  0
    0.3387   65.1411   83.6823 H   0  0  0  0  0  0  0  0  0  0  0  0
   -0.7500   63.0615   84.8192 C   0  0  0  0  0  0  0  0  0  0  0  0
   -1.8359   62.3449   85.3392 C   0  0  0  0  0  0  0  0  0  0  0  0
   -1.9495   62.1546   86.7187 C   0  0  0  0  0  0  0  0  0  0  0  0
   -0.9878   62.6826   87.5800 C   0  0  0  0  0  0  0  0  0  0  0  0
    0.0856   63.4098   87.0676 C   0  0  0  0  0  0  0  0  0  0  0  0
    0.2031   63.6038   85.6904 C   0  0  0  0  0  0  0  0  0  0  0  0
   -1.8939   60.7353   79.8814 C   0  0  0  0  0  0  0  0  0  0  0  0
   -2.0012   59.6546   77.6065 C   0  0  0  0  0  0  0  0  0  0  0  0
   -2.6712   60.6217   78.5693 C   0  0  0  0  0  0  0  0  0  0  0  0
 20 21  1  0  0  0
 21 19  1  0  0  0
 19  1  1  0  0  0
  1  2  2  0  0  0
  2  3  1  0  0  0
  3  4  1  0  0  0
  3  5  1  0  0  0
  5  6  1  0  0  0
  6  7  2  0  0  0
  6  8  1  0  0  0
  8  9  1  0  0  0
  9 13  1  0  0  0
 13 14  2  0  0  0
 14 15  1  0  0  0
 15 16  2  0  0  0
 16 17  1  0  0  0
 17 18  2  0  0  0
  9 10  2  0  0  0
 10 11  1  0  0  0
 11  1  1  0  0  0
 11  5  2  0  0  0
 18 13  1  0  0  0
  8 12  1  0  0  0
M  END
> <minimizedAffinity>
-1.10228

$$$$



 21 23  0  0  0  0  0  0  0  0999 V2000
   -0.7250   62.7115   78.1209 C   0  0  0  0  0  0  0  0  0  0  0  0
   -1.2474   62.0015   77.1024 N   0  0  0  0  0  0  0  0  0  0  0  0
   -2.0336   61.0800   77.7125 N   0  0  0  0  0  0  0  0  0  0  0  0
   -2.7666   60.1220   76.9206 C   0  0  0  0  0  0  0  0  0  0  0  0
   -2.0247   61.1853   79.0679 C   0  0  0  0  0  0  0  0  0  0  0  0
   -2.6845   60.4359   80.0714 C   0  0  0  0  0  0  0  0  0  0  0  0
   -3.4247   59.4773   79.8856 O   0  0  0  0  0  0  0  0  0  0  0  0
   -2.3906   60.9084   81.3311 N   0  0  0  0  0  0  0  0  0  0  0  0
   -1.5281   61.9749   81.5748 C   0  0  0  0  0  0  0  0  0  0  0  0
   -0.9059   62.6517   80.6499 N   0  0  0  0  0  0  0  0  0  0  0  0
   -1.1914   62.2247   79.3524 C   0  0  0  0  0  0  0  0  0  0  0  0
   -2.7932   60.3760   82.0864 H   0  0  0  0  0  0  0  0  0  0  0  0
   -1.3169   62.3182   83.0090 C   0  0  0  0  0  0  0  0  0  0  0  0
   -0.1392   62.9350   83.4513 C   0  0  0  0  0  0  0  0  0  0  0  0
    0.0203   63.2442   84.8045 C   0  0  0  0  0  0  0  0  0  0  0  0
   -0.9877   62.9340   85.7172 C   0  0  0  0  0  0  0  0  0  0  0  0
   -2.1543   62.3059   85.2836 C   0  0  0  0  0  0  0  0  0  0  0  0
   -2.3182   61.9937   83.9330 C   0  0  0  0  0  0  0  0  0  0  0  0
    0.2139   63.8391   77.8665 C   0  0  0  0  0  0  0  0  0  0  0  0
    0.3511   65.8665   79.3583 C   0  0  0  0  0  0  0  0  0  0  0  0
   -0.4019   65.1929   78.2223 C   0  0  0  0  0  0  0  0  0  0  0  0
 20 21  1  0  0  0
 21 19  1  0  0  0
 19  1  1  0  0  0
  1  2  2  0  0  0
  2  3  1  0  0  0
  3  4  1  0  0  0
  3  5  1  0  0  0
  5  6  1  0  0  0
  6  7  2  0  0  0
  6  8  1  0  0  0
  8  9  1  0  0  0
  9 13  1  0  0  0
 13 14  2  0  0  0
 14 15  1  0  0  0
 15 16  2  0  0  0
 16 17  1  0  0  0
 17 18  2  0  0  0
  9 10  2  0  0  0
 10 11  1  0  0  0
 11  1  1  0  0  0
 11  5  2  0  0  0
 18 13  1  0  0  0
  8 12  1  0  0  0
M  END
> <minimizedAffinity>
-1.09459

$$$$



 21 23  0  0  0  0  0  0  0  0999 V2000
   -0.0224   63.9914   82.9547 C   0  0  0  0  0  0  0  0  0  0  0  0
   -0.3070   63.9187   84.2692 N   0  0  0  0  0  0  0  0  0  0  0  0
   -1.2256   62.9245   84.3529 N   0  0  0  0  0  0  0  0  0  0  0  0
   -1.7759   62.5592   85.6358 C   0  0  0  0  0  0  0  0  0  0  0  0
   -1.5258   62.3732   83.1469 C   0  0  0  0  0  0  0  0  0  0  0  0
   -2.4186   61.3357   82.7858 C   0  0  0  0  0  0  0  0  0  0  0  0
   -3.1462   60.7124   83.5497 O   0  0  0  0  0  0  0  0  0  0  0  0
   -2.3913   61.0938   81.4303 N   0  0  0  0  0  0  0  0  0  0  0  0
   -1.5992   61.8073   80.5336 C   0  0  0  0  0  0  0  0  0  0  0  0
   -0.7917   62.7760   80.8658 N   0  0  0  0  0  0  0  0  0  0  0  0
   -0.7664   63.0425   82.2354 C   0  0  0  0  0  0  0  0  0  0  0  0
   -3.0488   60.3993   81.1120 H   0  0  0  0  0  0  0  0  0  0  0  0
   -1.7313   61.4141   79.1028 C   0  0  0  0  0  0  0  0  0  0  0  0
   -2.9814   61.1630   78.5221 C   0  0  0  0  0  0  0  0  0  0  0  0
   -3.0644   60.7995   77.1755 C   0  0  0  0  0  0  0  0  0  0  0  0
   -1.9048   60.6793   76.4098 C   0  0  0  0  0  0  0  0  0  0  0  0
   -0.6580   60.9128   76.9881 C   0  0  0  0  0  0  0  0  0  0  0  0
   -0.5694   61.2751   78.3332 C   0  0  0  0  0  0  0  0  0  0  0  0
    0.9610   64.9827   82.4373 C   0  0  0  0  0  0  0  0  0  0  0  0
    1.7864   67.0695   83.5856 C   0  0  0  0  0  0  0  0  0  0  0  0
    1.8452   65.5508   83.5482 C   0  0  0  0  0  0  0  0  0  0  0  0
 20 21  1  0  0  0
 21 19  1  0  0  0
 19  1  1  0  0  0
  1  2  2  0  0  0
  2  3  1  0  0  0
  3  4  1  0  0  0
  3  5  1  0  0  0
  5  6  1  0  0  0
  6  7  2  0  0  0
  6  8  1  0  0  0
  8  9  1  0  0  0
  9 13  1  0  0  0
 13 14  2  0  0  0
 14 15  1  0  0  0
 15 16  2  0  0  0
 16 17  1  0  0  0
 17 18  2  0  0  0
  9 10  2  0  0  0
 10 11  1  0  0  0
 11  1  1  0  0  0
 11  5  2  0  0  0
 18 13  1  0  0  0
  8 12  1  0  0  0
M  END
> <minimizedAffinity>
-1.08752

$$$$



 21 23  0  0  0  0  0  0  0  0999 V2000
    3.3279   67.6111   83.9157 C   0  0  0  0  0  0  0  0  0  0  0  0
    2.7132   66.4226   83.7609 N   0  0  0  0  0  0  0  0  0  0  0  0
    1.8467   66.6306   82.7385 N   0  0  0  0  0  0  0  0  0  0  0  0
    0.9962   65.5562   82.2862 C   0  0  0  0  0  0  0  0  0  0  0  0
    1.8951   67.8977   82.2482 C   0  0  0  0  0  0  0  0  0  0  0  0
    1.1715   68.5295   81.2084 C   0  0  0  0  0  0  0  0  0  0  0  0
    0.2963   68.0142   80.5230 O   0  0  0  0  0  0  0  0  0  0  0  0
    1.5619   69.8400   81.0444 N   0  0  0  0  0  0  0  0  0  0  0  0
    2.5303   70.4620   81.8291 C   0  0  0  0  0  0  0  0  0  0  0  0
    3.1820   69.8838   82.7995 N   0  0  0  0  0  0  0  0  0  0  0  0
    2.8377   68.5448   82.9888 C   0  0  0  0  0  0  0  0  0  0  0  0
    1.0397   70.3524   80.3510 H   0  0  0  0  0  0  0  0  0  0  0  0
    2.7929   71.8942   81.5140 C   0  0  0  0  0  0  0  0  0  0  0  0
    3.9860   72.3061   80.9058 C   0  0  0  0  0  0  0  0  0  0  0  0
    4.1940   73.6585   80.6232 C   0  0  0  0  0  0  0  0  0  0  0  0
    3.2191   74.6004   80.9514 C   0  0  0  0  0  0  0  0  0  0  0  0
    2.0374   74.1966   81.5711 C   0  0  0  0  0  0  0  0  0  0  0  0
    1.8252   72.8469   81.8567 C   0  0  0  0  0  0  0  0  0  0  0  0
    4.3702   67.8042   84.9615 C   0  0  0  0  0  0  0  0  0  0  0  0
    6.4658   66.6684   85.7818 C   0  0  0  0  0  0  0  0  0  0  0  0
    5.0090   66.4822   85.3893 C   0  0  0  0  0  0  0  0  0  0  0  0
 20 21  1  0  0  0
 21 19  1  0  0  0
 19  1  1  0  0  0
  1  2  2  0  0  0
  2  3  1  0  0  0
  3  4  1  0  0  0
  3  5  1  0  0  0
  5  6  1  0  0  0
  6  7  2  0  0  0
  6  8  1  0  0  0
  8  9  1  0  0  0
  9 13  1  0  0  0
 13 14  2  0  0  0
 14 15  1  0  0  0
 15 16  2  0  0  0
 16 17  1  0  0  0
 17 18  2  0  0  0
  9 10  2  0  0  0
 10 11  1  0  0  0
 11  1  1  0  0  0
 11  5  2  0  0  0
 18 13  1  0  0  0
  8 12  1  0  0  0
M  END
> <minimizedAffinity>
-1.08686

$$$$



 21 23  0  0  0  0  0  0  0  0999 V2000
   -0.3183   63.5302   79.2679 C   0  0  0  0  0  0  0  0  0  0  0  0
   -0.7496   62.9077   78.1541 N   0  0  0  0  0  0  0  0  0  0  0  0
   -1.5211   61.8946   78.6208 N   0  0  0  0  0  0  0  0  0  0  0  0
   -2.1624   60.9930   77.6945 C   0  0  0  0  0  0  0  0  0  0  0  0
   -1.5901   61.8589   79.9781 C   0  0  0  0  0  0  0  0  0  0  0  0
   -2.2650   60.9813   80.8603 C   0  0  0  0  0  0  0  0  0  0  0  0
   -2.9460   60.0158   80.5356 O   0  0  0  0  0  0  0  0  0  0  0  0
   -2.0627   61.3328   82.1765 N   0  0  0  0  0  0  0  0  0  0  0  0
   -1.2682   62.4047   82.5768 C   0  0  0  0  0  0  0  0  0  0  0  0
   -0.6314   63.2003   81.7630 N   0  0  0  0  0  0  0  0  0  0  0  0
   -0.8255   62.8983   80.4145 C   0  0  0  0  0  0  0  0  0  0  0  0
   -2.4785   60.7078   82.8491 H   0  0  0  0  0  0  0  0  0  0  0  0
   -1.1514   62.6062   84.0482 C   0  0  0  0  0  0  0  0  0  0  0  0
   -2.1670   62.2080   84.9274 C   0  0  0  0  0  0  0  0  0  0  0  0
   -2.0189   62.4111   86.3018 C   0  0  0  0  0  0  0  0  0  0  0  0
   -0.8650   63.0159   86.8000 C   0  0  0  0  0  0  0  0  0  0  0  0
    0.1408   63.4280   85.9270 C   0  0  0  0  0  0  0  0  0  0  0  0
   -0.0026   63.2284   84.5530 C   0  0  0  0  0  0  0  0  0  0  0  0
    0.5762   64.7179   79.1843 C   0  0  0  0  0  0  0  0  0  0  0  0
    0.7409   67.0973   80.0002 C   0  0  0  0  0  0  0  0  0  0  0  0
   -0.1768   66.0251   79.4352 C   0  0  0  0  0  0  0  0  0  0  0  0
 20 21  1  0  0  0
 21 19  1  0  0  0
 19  1  1  0  0  0
  1  2  2  0  0  0
  2  3  1  0  0  0
  3  4  1  0  0  0
  3  5  1  0  0  0
  5  6  1  0  0  0
  6  7  2  0  0  0
  6  8  1  0  0  0
  8  9  1  0  0  0
  9 13  1  0  0  0
 13 14  2  0  0  0
 14 15  1  0  0  0
 15 16  2  0  0  0
 16 17  1  0  0  0
 17 18  2  0  0  0
  9 10  2  0  0  0
 10 11  1  0  0  0
 11  1  1  0  0  0
 11  5  2  0  0  0
 18 13  1  0  0  0
  8 12  1  0  0  0
M  END
> <minimizedAffinity>
-1.07234

$$$$
