


 28 33  0  0  0  0  0  0  0  0999 V2000
   -0.6724   62.4578   85.3087 C   0  0  0  0  0  0  0  0  0  0  0  0
   -0.2505   63.3955   84.2881 N   0  0  0  0  0  0  0  0  0  0  0  0
    0.5572   64.4855   84.6394 C   0  0  0  0  0  0  0  0  0  0  0  0
    0.9557   64.6940   85.7824 O   0  0  0  0  0  0  0  0  0  0  0  0
    0.8799   65.3455   83.5314 C   0  0  0  0  0  0  0  0  0  0  0  0
    0.4598   65.1048   82.2532 C   0  0  0  0  0  0  0  0  0  0  0  0
    0.8760   66.0475   81.3789 N   0  0  0  0  0  0  0  0  0  0  0  0
    1.5847   66.8979   82.1064 C   0  0  0  0  0  0  0  0  0  0  0  0
    1.6094   66.5057   83.4400 N   0  0  0  0  0  0  0  0  0  0  0  0
   -0.2768   64.0328   81.9741 N   0  0  0  0  0  0  0  0  0  0  0  0
   -0.6650   63.1945   82.9784 C   0  0  0  0  0  0  0  0  0  0  0  0
   -1.4438   62.1994   82.6319 N   0  0  0  0  0  0  0  0  0  0  0  0
   -1.6452   62.3953   81.1572 C   0  0  0  0  0  0  0  0  0  0  0  0
   -1.0556   61.2226   80.3785 C   0  0  0  0  0  0  0  0  0  0  0  0
   -0.4199   61.8713   79.1587 C   0  0  0  0  0  0  0  0  0  0  0  0
    0.1928   63.1475   79.7161 C   0  0  0  0  0  0  0  0  0  0  0  0
   -0.8402   63.6505   80.7195 C   0  0  0  0  0  0  0  0  0  0  0  0
    2.2852   68.1190   81.5836 C   0  0  0  0  0  0  0  0  0  0  0  0
    1.3752   69.2271   81.1267 C   0  0  0  0  0  0  0  0  0  0  0  0
    1.3820   70.5588   81.8342 C   0  0  0  0  0  0  0  0  0  0  0  0
    1.9359   70.4468   80.4405 C   0  0  0  0  0  0  0  0  0  0  0  0
    2.2266   67.2316   84.5427 C   0  0  0  0  0  0  0  0  0  0  0  0
    3.6889   66.8980   84.7051 C   0  0  0  0  0  0  0  0  0  0  0  0
    4.0917   65.6488   85.2006 C   0  0  0  0  0  0  0  0  0  0  0  0
    5.4461   65.3468   85.3518 C   0  0  0  0  0  0  0  0  0  0  0  0
    6.4139   66.2909   85.0173 C   0  0  0  0  0  0  0  0  0  0  0  0
    6.0288   67.5402   84.5365 C   0  0  0  0  0  0  0  0  0  0  0  0
    4.6747   67.8445   84.3850 C   0  0  0  0  0  0  0  0  0  0  0  0
  1  2  1  0  0  0
  2  3  1  0  0  0
  3  4  2  0  0  0
  3  5  1  0  0  0
  5  6  2  0  0  0
  6  7  1  0  0  0
  7  8  2  0  0  0
  8 18  1  0  0  0
 18 19  1  0  0  0
 19 20  1  0  0  0
 20 21  1  0  0  0
  8  9  1  0  0  0
  9 22  1  0  0  0
 22 23  1  0  0  0
 23 24  2  0  0  0
 24 25  1  0  0  0
 25 26  2  0  0  0
 26 27  1  0  0  0
 27 28  2  0  0  0
  6 10  1  0  0  0
 10 11  1  0  0  0
 11 12  2  0  0  0
 12 13  1  0  0  0
 13 14  1  0  0  0
 14 15  1  0  0  0
 15 16  1  0  0  0
 16 17  1  0  0  0
 11  2  1  0  0  0
 17 13  1  0  0  0
  9  5  1  0  0  0
 28 23  1  0  0  0
 17 10  1  0  0  0
 21 19  1  0  0  0
M  END
> <minimizedAffinity>
-1.24228

$$$$



 28 33  0  0  0  0  0  0  0  0999 V2000
   -1.5350   72.3038   80.5992 C   0  0  0  0  0  0  0  0  0  0  0  0
   -0.1348   72.5496   80.8783 N   0  0  0  0  0  0  0  0  0  0  0  0
    0.3212   73.8659   81.0304 C   0  0  0  0  0  0  0  0  0  0  0  0
   -0.4105   74.8499   80.9580 O   0  0  0  0  0  0  0  0  0  0  0  0
    1.7352   73.9617   81.2807 C   0  0  0  0  0  0  0  0  0  0  0  0
    2.5497   72.8692   81.3870 C   0  0  0  0  0  0  0  0  0  0  0  0
    3.8401   73.1983   81.6166 N   0  0  0  0  0  0  0  0  0  0  0  0
    3.8498   74.5218   81.6714 C   0  0  0  0  0  0  0  0  0  0  0  0
    2.5737   75.0338   81.4652 N   0  0  0  0  0  0  0  0  0  0  0  0
    2.0525   71.6410   81.2681 N   0  0  0  0  0  0  0  0  0  0  0  0
    0.7294   71.4680   80.9823 C   0  0  0  0  0  0  0  0  0  0  0  0
    0.3314   70.2309   80.8151 N   0  0  0  0  0  0  0  0  0  0  0  0
    1.5840   69.4220   80.9895 C   0  0  0  0  0  0  0  0  0  0  0  0
    1.4622   68.5066   82.2047 C   0  0  0  0  0  0  0  0  0  0  0  0
    2.8409   68.5569   82.8447 C   0  0  0  0  0  0  0  0  0  0  0  0
    3.2485   70.0147   82.6921 C   0  0  0  0  0  0  0  0  0  0  0  0
    2.7528   70.3975   81.3012 C   0  0  0  0  0  0  0  0  0  0  0  0
    5.0582   75.3746   81.9312 C   0  0  0  0  0  0  0  0  0  0  0  0
    6.3113   74.9335   81.2245 C   0  0  0  0  0  0  0  0  0  0  0  0
    7.0695   75.8966   80.3461 C   0  0  0  0  0  0  0  0  0  0  0  0
    7.6592   75.4527   81.6564 C   0  0  0  0  0  0  0  0  0  0  0  0
    2.2113   76.4430   81.3826 C   0  0  0  0  0  0  0  0  0  0  0  0
    1.7189   76.9893   82.6998 C   0  0  0  0  0  0  0  0  0  0  0  0
    0.4085   77.4721   82.8344 C   0  0  0  0  0  0  0  0  0  0  0  0
   -0.0405   77.9793   84.0548 C   0  0  0  0  0  0  0  0  0  0  0  0
    0.8153   78.0175   85.1529 C   0  0  0  0  0  0  0  0  0  0  0  0
    2.1231   77.5538   85.0309 C   0  0  0  0  0  0  0  0  0  0  0  0
    2.5745   77.0465   83.8110 C   0  0  0  0  0  0  0  0  0  0  0  0
  1  2  1  0  0  0
  2  3  1  0  0  0
  3  4  2  0  0  0
  3  5  1  0  0  0
  5  6  2  0  0  0
  6  7  1  0  0  0
  7  8  2  0  0  0
  8 18  1  0  0  0
 18 19  1  0  0  0
 19 20  1  0  0  0
 20 21  1  0  0  0
  8  9  1  0  0  0
  9 22  1  0  0  0
 22 23  1  0  0  0
 23 24  2  0  0  0
 24 25  1  0  0  0
 25 26  2  0  0  0
 26 27  1  0  0  0
 27 28  2  0  0  0
  6 10  1  0  0  0
 10 11  1  0  0  0
 11 12  2  0  0  0
 12 13  1  0  0  0
 13 14  1  0  0  0
 14 15  1  0  0  0
 15 16  1  0  0  0
 16 17  1  0  0  0
 11  2  1  0  0  0
 17 13  1  0  0  0
  9  5  1  0  0  0
 28 23  1  0  0  0
 17 10  1  0  0  0
 21 19  1  0  0  0
M  END
> <minimizedAffinity>
-1.15853

$$$$



 28 33  0  0  0  0  0  0  0  0999 V2000
    1.9987   68.9112   80.7724 C   0  0  0  0  0  0  0  0  0  0  0  0
    1.7832   67.8198   81.7004 N   0  0  0  0  0  0  0  0  0  0  0  0
    0.7780   66.8782   81.4418 C   0  0  0  0  0  0  0  0  0  0  0  0
    0.0605   66.9082   80.4454 O   0  0  0  0  0  0  0  0  0  0  0  0
    0.6611   65.8651   82.4574 C   0  0  0  0  0  0  0  0  0  0  0  0
    1.4731   65.8125   83.5557 C   0  0  0  0  0  0  0  0  0  0  0  0
    1.1770   64.7810   84.3769 N   0  0  0  0  0  0  0  0  0  0  0  0
    0.1685   64.1555   83.7885 C   0  0  0  0  0  0  0  0  0  0  0  0
   -0.1846   64.7929   82.6044 N   0  0  0  0  0  0  0  0  0  0  0  0
    2.4345   66.7154   83.7296 N   0  0  0  0  0  0  0  0  0  0  0  0
    2.5784   67.7360   82.8354 C   0  0  0  0  0  0  0  0  0  0  0  0
    3.5042   68.6208   83.1125 N   0  0  0  0  0  0  0  0  0  0  0  0
    4.0746   68.1494   84.4187 C   0  0  0  0  0  0  0  0  0  0  0  0
    5.5435   67.7694   84.2525 C   0  0  0  0  0  0  0  0  0  0  0  0
    5.7021   66.5234   85.1099 C   0  0  0  0  0  0  0  0  0  0  0  0
    4.4086   65.7602   84.8669 C   0  0  0  0  0  0  0  0  0  0  0  0
    3.3365   66.8447   84.8284 C   0  0  0  0  0  0  0  0  0  0  0  0
   -0.5098   62.9187   84.3037 C   0  0  0  0  0  0  0  0  0  0  0  0
   -1.2321   63.0883   85.6129 C   0  0  0  0  0  0  0  0  0  0  0  0
   -1.4758   61.8994   86.5080 C   0  0  0  0  0  0  0  0  0  0  0  0
   -0.4920   62.9598   86.9200 C   0  0  0  0  0  0  0  0  0  0  0  0
   -1.2927   64.4353   81.7281 C   0  0  0  0  0  0  0  0  0  0  0  0
   -0.9088   63.3885   80.7118 C   0  0  0  0  0  0  0  0  0  0  0  0
   -0.1903   63.7348   79.5577 C   0  0  0  0  0  0  0  0  0  0  0  0
    0.1595   62.7624   78.6193 C   0  0  0  0  0  0  0  0  0  0  0  0
   -0.2105   61.4345   78.8183 C   0  0  0  0  0  0  0  0  0  0  0  0
   -0.9354   61.0778   79.9529 C   0  0  0  0  0  0  0  0  0  0  0  0
   -1.2867   62.0488   80.8926 C   0  0  0  0  0  0  0  0  0  0  0  0
  1  2  1  0  0  0
  2  3  1  0  0  0
  3  4  2  0  0  0
  3  5  1  0  0  0
  5  6  2  0  0  0
  6  7  1  0  0  0
  7  8  2  0  0  0
  8 18  1  0  0  0
 18 19  1  0  0  0
 19 20  1  0  0  0
 20 21  1  0  0  0
  8  9  1  0  0  0
  9 22  1  0  0  0
 22 23  1  0  0  0
 23 24  2  0  0  0
 24 25  1  0  0  0
 25 26  2  0  0  0
 26 27  1  0  0  0
 27 28  2  0  0  0
  6 10  1  0  0  0
 10 11  1  0  0  0
 11 12  2  0  0  0
 12 13  1  0  0  0
 13 14  1  0  0  0
 14 15  1  0  0  0
 15 16  1  0  0  0
 16 17  1  0  0  0
 11  2  1  0  0  0
 17 13  1  0  0  0
  9  5  1  0  0  0
 28 23  1  0  0  0
 17 10  1  0  0  0
 21 19  1  0  0  0
M  END
> <minimizedAffinity>
-1.12141

$$$$



 28 33  0  0  0  0  0  0  0  0999 V2000
   -0.5933   63.9006   78.9296 C   0  0  0  0  0  0  0  0  0  0  0  0
   -0.0015   64.3642   80.1680 N   0  0  0  0  0  0  0  0  0  0  0  0
    0.7000   65.5771   80.1898 C   0  0  0  0  0  0  0  0  0  0  0  0
    0.8348   66.3005   79.2063 O   0  0  0  0  0  0  0  0  0  0  0  0
    1.2528   65.9012   81.4785 C   0  0  0  0  0  0  0  0  0  0  0  0
    1.0848   65.1124   82.5821 C   0  0  0  0  0  0  0  0  0  0  0  0
    1.6968   65.6099   83.6794 N   0  0  0  0  0  0  0  0  0  0  0  0
    2.2542   66.7416   83.2753 C   0  0  0  0  0  0  0  0  0  0  0  0
    2.0090   66.9577   81.9239 N   0  0  0  0  0  0  0  0  0  0  0  0
    0.3778   63.9879   82.5081 N   0  0  0  0  0  0  0  0  0  0  0  0
   -0.1384   63.5870   81.3103 C   0  0  0  0  0  0  0  0  0  0  0  0
   -0.7645   62.4360   81.3071 N   0  0  0  0  0  0  0  0  0  0  0  0
   -0.6402   61.9536   82.7233 C   0  0  0  0  0  0  0  0  0  0  0  0
   -2.0170   61.8514   83.3741 C   0  0  0  0  0  0  0  0  0  0  0  0
   -1.7927   62.3492   84.7935 C   0  0  0  0  0  0  0  0  0  0  0  0
   -0.8244   63.5087   84.6124 C   0  0  0  0  0  0  0  0  0  0  0  0
    0.1405   63.0247   83.5346 C   0  0  0  0  0  0  0  0  0  0  0  0
    3.0381   67.6850   84.1416 C   0  0  0  0  0  0  0  0  0  0  0  0
    4.4606   67.2718   84.4063 C   0  0  0  0  0  0  0  0  0  0  0  0
    5.1430   67.6699   85.6908 C   0  0  0  0  0  0  0  0  0  0  0  0
    4.7758   66.2314   85.4509 C   0  0  0  0  0  0  0  0  0  0  0  0
    2.5240   68.0570   81.1176 C   0  0  0  0  0  0  0  0  0  0  0  0
    1.7232   69.3236   81.2919 C   0  0  0  0  0  0  0  0  0  0  0  0
    0.3798   69.3870   80.8924 C   0  0  0  0  0  0  0  0  0  0  0  0
   -0.3552   70.5627   81.0533 C   0  0  0  0  0  0  0  0  0  0  0  0
    0.2442   71.6910   81.6077 C   0  0  0  0  0  0  0  0  0  0  0  0
    1.5809   71.6471   81.9969 C   0  0  0  0  0  0  0  0  0  0  0  0
    2.3181   70.4724   81.8365 C   0  0  0  0  0  0  0  0  0  0  0  0
  1  2  1  0  0  0
  2  3  1  0  0  0
  3  4  2  0  0  0
  3  5  1  0  0  0
  5  6  2  0  0  0
  6  7  1  0  0  0
  7  8  2  0  0  0
  8 18  1  0  0  0
 18 19  1  0  0  0
 19 20  1  0  0  0
 20 21  1  0  0  0
  8  9  1  0  0  0
  9 22  1  0  0  0
 22 23  1  0  0  0
 23 24  2  0  0  0
 24 25  1  0  0  0
 25 26  2  0  0  0
 26 27  1  0  0  0
 27 28  2  0  0  0
  6 10  1  0  0  0
 10 11  1  0  0  0
 11 12  2  0  0  0
 12 13  1  0  0  0
 13 14  1  0  0  0
 14 15  1  0  0  0
 15 16  1  0  0  0
 16 17  1  0  0  0
 11  2  1  0  0  0
 17 13  1  0  0  0
  9  5  1  0  0  0
 28 23  1  0  0  0
 17 10  1  0  0  0
 21 19  1  0  0  0
M  END
> <minimizedAffinity>
-1.08243

$$$$



 28 33  0  0  0  0  0  0  0  0999 V2000
    0.8215   65.8752   79.0178 C   0  0  0  0  0  0  0  0  0  0  0  0
    0.6644   65.2174   80.2989 N   0  0  0  0  0  0  0  0  0  0  0  0
    0.9524   65.9180   81.4779 C   0  0  0  0  0  0  0  0  0  0  0  0
    1.3223   67.0891   81.4979 O   0  0  0  0  0  0  0  0  0  0  0  0
    0.7746   65.1353   82.6725 C   0  0  0  0  0  0  0  0  0  0  0  0
    0.3394   63.8396   82.6576 C   0  0  0  0  0  0  0  0  0  0  0  0
    0.2537   63.3017   83.8943 N   0  0  0  0  0  0  0  0  0  0  0  0
    0.6271   64.2723   84.7149 C   0  0  0  0  0  0  0  0  0  0  0  0
    0.9611   65.4192   84.0034 N   0  0  0  0  0  0  0  0  0  0  0  0
    0.0475   63.2376   81.5078 N   0  0  0  0  0  0  0  0  0  0  0  0
    0.2358   63.8972   80.3282 C   0  0  0  0  0  0  0  0  0  0  0  0
   -0.0112   63.2135   79.2381 N   0  0  0  0  0  0  0  0  0  0  0  0
   -0.4110   61.8581   79.7449 C   0  0  0  0  0  0  0  0  0  0  0  0
   -1.8580   61.5535   79.3670 C   0  0  0  0  0  0  0  0  0  0  0  0
   -2.4201   60.8514   80.5934 C   0  0  0  0  0  0  0  0  0  0  0  0
   -1.7991   61.6151   81.7535 C   0  0  0  0  0  0  0  0  0  0  0  0
   -0.3692   61.8885   81.2980 C   0  0  0  0  0  0  0  0  0  0  0  0
    0.6793   64.1757   86.2125 C   0  0  0  0  0  0  0  0  0  0  0  0
   -0.1669   63.0835   86.8089 C   0  0  0  0  0  0  0  0  0  0  0  0
   -0.0983   62.7876   88.2860 C   0  0  0  0  0  0  0  0  0  0  0  0
   -1.3332   63.4184   87.7036 C   0  0  0  0  0  0  0  0  0  0  0  0
    1.4847   66.6597   84.5608 C   0  0  0  0  0  0  0  0  0  0  0  0
    2.9928   66.6877   84.5881 C   0  0  0  0  0  0  0  0  0  0  0  0
    3.7250   65.5867   85.0570 C   0  0  0  0  0  0  0  0  0  0  0  0
    5.1203   65.6196   85.0829 C   0  0  0  0  0  0  0  0  0  0  0  0
    5.8005   66.7545   84.6482 C   0  0  0  0  0  0  0  0  0  0  0  0
    5.0867   67.8602   84.1922 C   0  0  0  0  0  0  0  0  0  0  0  0
    3.6911   67.8297   84.1659 C   0  0  0  0  0  0  0  0  0  0  0  0
  1  2  1  0  0  0
  2  3  1  0  0  0
  3  4  2  0  0  0
  3  5  1  0  0  0
  5  6  2  0  0  0
  6  7  1  0  0  0
  7  8  2  0  0  0
  8 18  1  0  0  0
 18 19  1  0  0  0
 19 20  1  0  0  0
 20 21  1  0  0  0
  8  9  1  0  0  0
  9 22  1  0  0  0
 22 23  1  0  0  0
 23 24  2  0  0  0
 24 25  1  0  0  0
 25 26  2  0  0  0
 26 27  1  0  0  0
 27 28  2  0  0  0
  6 10  1  0  0  0
 10 11  1  0  0  0
 11 12  2  0  0  0
 12 13  1  0  0  0
 13 14  1  0  0  0
 14 15  1  0  0  0
 15 16  1  0  0  0
 16 17  1  0  0  0
 11  2  1  0  0  0
 17 13  1  0  0  0
  9  5  1  0  0  0
 28 23  1  0  0  0
 17 10  1  0  0  0
 21 19  1  0  0  0
M  END
> <minimizedAffinity>
-1.06589

$$$$



 28 33  0  0  0  0  0  0  0  0999 V2000
    7.6649   77.6026   82.0234 C   0  0  0  0  0  0  0  0  0  0  0  0
    6.8099   76.4899   81.6635 N   0  0  0  0  0  0  0  0  0  0  0  0
    5.6254   76.2663   82.3783 C   0  0  0  0  0  0  0  0  0  0  0  0
    5.2459   76.9805   83.3028 O   0  0  0  0  0  0  0  0  0  0  0  0
    4.8882   75.1151   81.9282 C   0  0  0  0  0  0  0  0  0  0  0  0
    5.2931   74.3314   80.8841 C   0  0  0  0  0  0  0  0  0  0  0  0
    4.4498   73.3033   80.6432 N   0  0  0  0  0  0  0  0  0  0  0  0
    3.4829   73.4385   81.5385 C   0  0  0  0  0  0  0  0  0  0  0  0
    3.7157   74.5403   82.3540 N   0  0  0  0  0  0  0  0  0  0  0  0
    6.4104   74.6144   80.2198 N   0  0  0  0  0  0  0  0  0  0  0  0
    7.1902   75.6616   80.6163 C   0  0  0  0  0  0  0  0  0  0  0  0
    8.3070   75.8340   79.9531 N   0  0  0  0  0  0  0  0  0  0  0  0
    8.3108   74.7126   78.9550 C   0  0  0  0  0  0  0  0  0  0  0  0
    8.2566   75.2647   77.5331 C   0  0  0  0  0  0  0  0  0  0  0  0
    7.3265   74.3097   76.8011 C   0  0  0  0  0  0  0  0  0  0  0  0
    6.2463   74.0105   77.8299 C   0  0  0  0  0  0  0  0  0  0  0  0
    7.0077   73.8877   79.1460 C   0  0  0  0  0  0  0  0  0  0  0  0
    2.2832   72.5446   81.6675 C   0  0  0  0  0  0  0  0  0  0  0  0
    2.4760   71.1437   81.1529 C   0  0  0  0  0  0  0  0  0  0  0  0
    2.2255   69.9603   82.0534 C   0  0  0  0  0  0  0  0  0  0  0  0
    1.2900   70.2451   80.9107 C   0  0  0  0  0  0  0  0  0  0  0  0
    2.9086   74.9574   83.4935 C   0  0  0  0  0  0  0  0  0  0  0  0
    1.9687   76.0866   83.1510 C   0  0  0  0  0  0  0  0  0  0  0  0
    1.2309   76.0727   81.9578 C   0  0  0  0  0  0  0  0  0  0  0  0
    0.3651   77.1219   81.6447 C   0  0  0  0  0  0  0  0  0  0  0  0
    0.2313   78.2007   82.5154 C   0  0  0  0  0  0  0  0  0  0  0  0
    0.9671   78.2347   83.6976 C   0  0  0  0  0  0  0  0  0  0  0  0
    1.8340   77.1867   84.0125 C   0  0  0  0  0  0  0  0  0  0  0  0
  1  2  1  0  0  0
  2  3  1  0  0  0
  3  4  2  0  0  0
  3  5  1  0  0  0
  5  6  2  0  0  0
  6  7  1  0  0  0
  7  8  2  0  0  0
  8 18  1  0  0  0
 18 19  1  0  0  0
 19 20  1  0  0  0
 20 21  1  0  0  0
  8  9  1  0  0  0
  9 22  1  0  0  0
 22 23  1  0  0  0
 23 24  2  0  0  0
 24 25  1  0  0  0
 25 26  2  0  0  0
 26 27  1  0  0  0
 27 28  2  0  0  0
  6 10  1  0  0  0
 10 11  1  0  0  0
 11 12  2  0  0  0
 12 13  1  0  0  0
 13 14  1  0  0  0
 14 15  1  0  0  0
 15 16  1  0  0  0
 16 17  1  0  0  0
 11  2  1  0  0  0
 17 13  1  0  0  0
  9  5  1  0  0  0
 28 23  1  0  0  0
 17 10  1  0  0  0
 21 19  1  0  0  0
M  END
> <minimizedAffinity>
-1.04428

$$$$



 28 33  0  0  0  0  0  0  0  0999 V2000
    3.7840   67.8722   84.6910 C   0  0  0  0  0  0  0  0  0  0  0  0
    2.8463   67.4344   83.6772 N   0  0  0  0  0  0  0  0  0  0  0  0
    2.3604   66.1203   83.7033 C   0  0  0  0  0  0  0  0  0  0  0  0
    2.6720   65.2988   84.5617 O   0  0  0  0  0  0  0  0  0  0  0  0
    1.4567   65.8174   82.6250 C   0  0  0  0  0  0  0  0  0  0  0  0
    1.0871   66.7347   81.6813 C   0  0  0  0  0  0  0  0  0  0  0  0
    0.2365   66.2270   80.7623 N   0  0  0  0  0  0  0  0  0  0  0  0
    0.0480   64.9686   81.1307 C   0  0  0  0  0  0  0  0  0  0  0  0
    0.7849   64.6726   82.2719 N   0  0  0  0  0  0  0  0  0  0  0  0
    1.5547   67.9793   81.7287 N   0  0  0  0  0  0  0  0  0  0  0  0
    2.4539   68.3314   82.6928 C   0  0  0  0  0  0  0  0  0  0  0  0
    2.9171   69.5555   82.6315 N   0  0  0  0  0  0  0  0  0  0  0  0
    2.2497   70.1336   81.4173 C   0  0  0  0  0  0  0  0  0  0  0  0
    1.3418   71.2956   81.8108 C   0  0  0  0  0  0  0  0  0  0  0  0
    0.1196   71.1270   80.9216 C   0  0  0  0  0  0  0  0  0  0  0  0
   -0.0919   69.6207   80.8934 C   0  0  0  0  0  0  0  0  0  0  0  0
    1.3191   69.0469   80.8108 C   0  0  0  0  0  0  0  0  0  0  0  0
   -0.8437   63.9809   80.4348 C   0  0  0  0  0  0  0  0  0  0  0  0
   -0.2644   63.3706   79.1872 C   0  0  0  0  0  0  0  0  0  0  0  0
   -0.4703   61.9068   78.8890 C   0  0  0  0  0  0  0  0  0  0  0  0
   -1.1617   62.9475   78.0519 C   0  0  0  0  0  0  0  0  0  0  0  0
    0.8852   63.3723   82.9222 C   0  0  0  0  0  0  0  0  0  0  0  0
   -0.1727   63.1737   83.9792 C   0  0  0  0  0  0  0  0  0  0  0  0
    0.0929   63.4605   85.3266 C   0  0  0  0  0  0  0  0  0  0  0  0
   -0.8889   63.2718   86.3007 C   0  0  0  0  0  0  0  0  0  0  0  0
   -2.1447   62.7876   85.9424 C   0  0  0  0  0  0  0  0  0  0  0  0
   -2.4188   62.4860   84.6104 C   0  0  0  0  0  0  0  0  0  0  0  0
   -1.4381   62.6735   83.6345 C   0  0  0  0  0  0  0  0  0  0  0  0
  1  2  1  0  0  0
  2  3  1  0  0  0
  3  4  2  0  0  0
  3  5  1  0  0  0
  5  6  2  0  0  0
  6  7  1  0  0  0
  7  8  2  0  0  0
  8 18  1  0  0  0
 18 19  1  0  0  0
 19 20  1  0  0  0
 20 21  1  0  0  0
  8  9  1  0  0  0
  9 22  1  0  0  0
 22 23  1  0  0  0
 23 24  2  0  0  0
 24 25  1  0  0  0
 25 26  2  0  0  0
 26 27  1  0  0  0
 27 28  2  0  0  0
  6 10  1  0  0  0
 10 11  1  0  0  0
 11 12  2  0  0  0
 12 13  1  0  0  0
 13 14  1  0  0  0
 14 15  1  0  0  0
 15 16  1  0  0  0
 16 17  1  0  0  0
 11  2  1  0  0  0
 17 13  1  0  0  0
  9  5  1  0  0  0
 28 23  1  0  0  0
 17 10  1  0  0  0
 21 19  1  0  0  0
M  END
> <minimizedAffinity>
-1.02278

$$$$



 28 33  0  0  0  0  0  0  0  0999 V2000
    5.8895   71.9343   79.3596 C   0  0  0  0  0  0  0  0  0  0  0  0
    4.9314   72.6728   80.1567 N   0  0  0  0  0  0  0  0  0  0  0  0
    5.0626   74.0619   80.2874 C   0  0  0  0  0  0  0  0  0  0  0  0
    5.9494   74.7137   79.7422 O   0  0  0  0  0  0  0  0  0  0  0  0
    4.0567   74.6604   81.1249 C   0  0  0  0  0  0  0  0  0  0  0  0
    3.0530   73.9434   81.7139 C   0  0  0  0  0  0  0  0  0  0  0  0
    2.2292   74.7116   82.4604 N   0  0  0  0  0  0  0  0  0  0  0  0
    2.7049   75.9417   82.3368 C   0  0  0  0  0  0  0  0  0  0  0  0
    3.8340   75.9552   81.5254 N   0  0  0  0  0  0  0  0  0  0  0  0
    2.9593   72.6300   81.5244 N   0  0  0  0  0  0  0  0  0  0  0  0
    3.9029   71.9812   80.7823 C   0  0  0  0  0  0  0  0  0  0  0  0
    3.7774   70.6797   80.6982 N   0  0  0  0  0  0  0  0  0  0  0  0
    2.5682   70.3788   81.5354 C   0  0  0  0  0  0  0  0  0  0  0  0
    1.4553   69.7907   80.6722 C   0  0  0  0  0  0  0  0  0  0  0  0
    0.1876   70.4293   81.2181 C   0  0  0  0  0  0  0  0  0  0  0  0
    0.6120   71.8599   81.5146 C   0  0  0  0  0  0  0  0  0  0  0  0
    2.0168   71.7207   82.0925 C   0  0  0  0  0  0  0  0  0  0  0  0
    2.1165   77.1712   82.9667 C   0  0  0  0  0  0  0  0  0  0  0  0
    0.6147   77.1796   83.0628 C   0  0  0  0  0  0  0  0  0  0  0  0
   -0.0881   78.2036   83.9180 C   0  0  0  0  0  0  0  0  0  0  0  0
   -0.1893   78.2807   82.4195 C   0  0  0  0  0  0  0  0  0  0  0  0
    4.6666   77.1123   81.2231 C   0  0  0  0  0  0  0  0  0  0  0  0
    5.6895   77.3827   82.2985 C   0  0  0  0  0  0  0  0  0  0  0  0
    6.8366   76.5838   82.4184 C   0  0  0  0  0  0  0  0  0  0  0  0
    7.7781   76.8368   83.4174 C   0  0  0  0  0  0  0  0  0  0  0  0
    7.5819   77.8853   84.3129 C   0  0  0  0  0  0  0  0  0  0  0  0
    6.4414   78.6788   84.2144 C   0  0  0  0  0  0  0  0  0  0  0  0
    5.4982   78.4273   83.2163 C   0  0  0  0  0  0  0  0  0  0  0  0
  1  2  1  0  0  0
  2  3  1  0  0  0
  3  4  2  0  0  0
  3  5  1  0  0  0
  5  6  2  0  0  0
  6  7  1  0  0  0
  7  8  2  0  0  0
  8 18  1  0  0  0
 18 19  1  0  0  0
 19 20  1  0  0  0
 20 21  1  0  0  0
  8  9  1  0  0  0
  9 22  1  0  0  0
 22 23  1  0  0  0
 23 24  2  0  0  0
 24 25  1  0  0  0
 25 26  2  0  0  0
 26 27  1  0  0  0
 27 28  2  0  0  0
  6 10  1  0  0  0
 10 11  1  0  0  0
 11 12  2  0  0  0
 12 13  1  0  0  0
 13 14  1  0  0  0
 14 15  1  0  0  0
 15 16  1  0  0  0
 16 17  1  0  0  0
 11  2  1  0  0  0
 17 13  1  0  0  0
  9  5  1  0  0  0
 28 23  1  0  0  0
 17 10  1  0  0  0
 21 19  1  0  0  0
M  END
> <minimizedAffinity>
-1.00674

$$$$



 28 33  0  0  0  0  0  0  0  0999 V2000
   -1.5692   72.3074   80.6185 C   0  0  0  0  0  0  0  0  0  0  0  0
   -0.1775   72.5922   80.9026 N   0  0  0  0  0  0  0  0  0  0  0  0
    0.2356   73.9189   81.0841 C   0  0  0  0  0  0  0  0  0  0  0  0
   -0.5276   74.8800   81.0340 O   0  0  0  0  0  0  0  0  0  0  0  0
    1.6461   74.0550   81.3359 C   0  0  0  0  0  0  0  0  0  0  0  0
    2.4958   72.9874   81.4174 C   0  0  0  0  0  0  0  0  0  0  0  0
    3.7750   73.3530   81.6538 N   0  0  0  0  0  0  0  0  0  0  0  0
    3.7418   74.6746   81.7384 C   0  0  0  0  0  0  0  0  0  0  0  0
    2.4495   75.1494   81.5442 N   0  0  0  0  0  0  0  0  0  0  0  0
    2.0385   71.7467   81.2711 N   0  0  0  0  0  0  0  0  0  0  0  0
    0.7215   71.5372   80.9820 C   0  0  0  0  0  0  0  0  0  0  0  0
    0.3637   70.2919   80.7872 N   0  0  0  0  0  0  0  0  0  0  0  0
    1.6421   69.5204   80.9429 C   0  0  0  0  0  0  0  0  0  0  0  0
    1.5515   68.5745   82.1373 C   0  0  0  0  0  0  0  0  0  0  0  0
    2.9285   68.6552   82.7777 C   0  0  0  0  0  0  0  0  0  0  0  0
    3.2883   70.1286   82.6578 C   0  0  0  0  0  0  0  0  0  0  0  0
    2.7789   70.5262   81.2760 C   0  0  0  0  0  0  0  0  0  0  0  0
    4.9221   75.5601   82.0169 C   0  0  0  0  0  0  0  0  0  0  0  0
    6.2398   75.0419   81.5075 C   0  0  0  0  0  0  0  0  0  0  0  0
    7.1689   75.9477   80.7392 C   0  0  0  0  0  0  0  0  0  0  0  0
    7.5358   75.4995   82.1272 C   0  0  0  0  0  0  0  0  0  0  0  0
    2.0415   76.5475   81.4934 C   0  0  0  0  0  0  0  0  0  0  0  0
    1.9037   77.0564   80.0799 C   0  0  0  0  0  0  0  0  0  0  0  0
    2.8935   76.7947   79.1207 C   0  0  0  0  0  0  0  0  0  0  0  0
    2.7621   77.2709   77.8152 C   0  0  0  0  0  0  0  0  0  0  0  0
    1.6450   78.0201   77.4539 C   0  0  0  0  0  0  0  0  0  0  0  0
    0.6604   78.2990   78.3988 C   0  0  0  0  0  0  0  0  0  0  0  0
    0.7900   77.8242   79.7053 C   0  0  0  0  0  0  0  0  0  0  0  0
  1  2  1  0  0  0
  2  3  1  0  0  0
  3  4  2  0  0  0
  3  5  1  0  0  0
  5  6  2  0  0  0
  6  7  1  0  0  0
  7  8  2  0  0  0
  8 18  1  0  0  0
 18 19  1  0  0  0
 19 20  1  0  0  0
 20 21  1  0  0  0
  8  9  1  0  0  0
  9 22  1  0  0  0
 22 23  1  0  0  0
 23 24  2  0  0  0
 24 25  1  0  0  0
 25 26  2  0  0  0
 26 27  1  0  0  0
 27 28  2  0  0  0
  6 10  1  0  0  0
 10 11  1  0  0  0
 11 12  2  0  0  0
 12 13  1  0  0  0
 13 14  1  0  0  0
 14 15  1  0  0  0
 15 16  1  0  0  0
 16 17  1  0  0  0
 11  2  1  0  0  0
 17 13  1  0  0  0
  9  5  1  0  0  0
 28 23  1  0  0  0
 17 10  1  0  0  0
 21 19  1  0  0  0
M  END
> <minimizedAffinity>
-1.00034

$$$$
