


 31 33  0  0  0  0  0  0  0  0999 V2000
    0.1355   63.8832   80.5626 N   0  0  0  0  0  0  0  0  0  0  0  0
    0.2199   65.2549   80.4030 C   0  0  0  0  0  0  0  0  0  0  0  0
   -0.1218   65.9161   79.4308 O   0  0  0  0  0  0  0  0  0  0  0  0
    0.4884   63.5742   81.4641 H   0  0  0  0  0  0  0  0  0  0  0  0
   -2.3105   62.4880   81.2028 C   0  0  0  0  0  0  0  0  0  0  0  0
   -1.5066   62.1830   79.9612 C   0  0  0  0  0  0  0  0  0  0  0  0
   -0.3275   62.9069   79.6551 C   0  0  0  0  0  0  0  0  0  0  0  0
    0.3639   62.6255   78.4687 C   0  0  0  0  0  0  0  0  0  0  0  0
   -0.0660   61.6224   77.6001 C   0  0  0  0  0  0  0  0  0  0  0  0
   -1.1931   60.8746   77.9112 C   0  0  0  0  0  0  0  0  0  0  0  0
   -1.9101   61.1470   79.0851 C   0  0  0  0  0  0  0  0  0  0  0  0
   -3.0793   60.2804   79.3869 C   0  0  0  0  0  0  0  0  0  0  0  0
   -4.2336   60.6816   79.2779 O   0  0  0  0  0  0  0  0  0  0  0  0
   -2.7764   58.9897   79.7616 N   0  0  0  0  0  0  0  0  0  0  0  0
   -3.8867   58.1154   79.8440 O   0  0  0  0  0  0  0  0  0  0  0  0
   -1.8814   58.5619   79.5481 H   0  0  0  0  0  0  0  0  0  0  0  0
   -4.6410   58.7201   79.6647 H   0  0  0  0  0  0  0  0  0  0  0  0
    0.7993   65.9364   81.6102 C   0  0  0  0  0  0  0  0  0  0  0  0
    1.4105   67.1758   81.4874 C   0  0  0  0  0  0  0  0  0  0  0  0
    1.9251   67.7651   82.6356 C   0  0  0  0  0  0  0  0  0  0  0  0
    1.8105   67.1017   83.8552 C   0  0  0  0  0  0  0  0  0  0  0  0
    1.1779   65.8588   83.9002 C   0  0  0  0  0  0  0  0  0  0  0  0
    0.6737   65.2593   82.7905 N   0  0  0  0  0  0  0  0  0  0  0  0
    1.0524   65.1133   85.2125 C   0  0  0  0  0  0  0  0  0  0  0  0
    0.5996   63.7672   85.0449 O   0  0  0  0  0  0  0  0  0  0  0  0
   -0.5277   63.3730   85.7114 C   0  0  0  0  0  0  0  0  0  0  0  0
   -0.5208   63.6600   87.0797 C   0  0  0  0  0  0  0  0  0  0  0  0
   -1.6086   63.3198   87.8855 C   0  0  0  0  0  0  0  0  0  0  0  0
   -2.7169   62.6915   87.3243 C   0  0  0  0  0  0  0  0  0  0  0  0
   -2.7347   62.4075   85.9601 C   0  0  0  0  0  0  0  0  0  0  0  0
   -1.6436   62.7480   85.1538 C   0  0  0  0  0  0  0  0  0  0  0  0
  5  6  1  0  0  0
  6  7  1  0  0  0
  7  1  1  0  0  0
  1  2  1  0  0  0
  2  3  2  0  0  0
  2 18  1  0  0  0
 18 19  1  0  0  0
 19 20  2  0  0  0
 20 21  1  0  0  0
 21 22  2  0  0  0
 22 24  1  0  0  0
 24 25  1  0  0  0
 25 26  1  0  0  0
 26 27  2  0  0  0
 27 28  1  0  0  0
 28 29  2  0  0  0
 29 30  1  0  0  0
 30 31  2  0  0  0
 22 23  1  0  0  0
  7  8  2  0  0  0
  8  9  1  0  0  0
  9 10  2  0  0  0
 10 11  1  0  0  0
 11 12  1  0  0  0
 12 13  2  0  0  0
 12 14  1  0  0  0
 14 15  1  0  0  0
 11  6  2  0  0  0
 23 18  2  0  0  0
 31 26  1  0  0  0
  1  4  1  0  0  0
 14 16  1  0  0  0
 15 17  1  0  0  0
M  END
> <minimizedAffinity>
-10.48284

$$$$



 31 33  0  0  0  0  0  0  0  0999 V2000
   -1.3793   62.5926   82.4109 N   0  0  0  0  0  0  0  0  0  0  0  0
   -1.6563   62.2139   83.7125 C   0  0  0  0  0  0  0  0  0  0  0  0
   -2.4359   61.3479   84.0885 O   0  0  0  0  0  0  0  0  0  0  0  0
   -0.6932   63.3407   82.3613 H   0  0  0  0  0  0  0  0  0  0  0  0
    0.4104   61.4335   80.4634 C   0  0  0  0  0  0  0  0  0  0  0  0
   -1.0735   61.5695   80.2181 C   0  0  0  0  0  0  0  0  0  0  0  0
   -1.9332   62.1118   81.2055 C   0  0  0  0  0  0  0  0  0  0  0  0
   -3.3111   62.1769   80.9571 C   0  0  0  0  0  0  0  0  0  0  0  0
   -3.8495   61.7509   79.7430 C   0  0  0  0  0  0  0  0  0  0  0  0
   -3.0130   61.2609   78.7497 C   0  0  0  0  0  0  0  0  0  0  0  0
   -1.6326   61.1723   78.9798 C   0  0  0  0  0  0  0  0  0  0  0  0
   -0.7844   60.6849   77.8608 C   0  0  0  0  0  0  0  0  0  0  0  0
   -0.1766   61.4522   77.1213 O   0  0  0  0  0  0  0  0  0  0  0  0
   -0.7014   59.3154   77.7361 N   0  0  0  0  0  0  0  0  0  0  0  0
    0.2652   58.8574   76.8089 O   0  0  0  0  0  0  0  0  0  0  0  0
   -0.9205   58.6894   78.5041 H   0  0  0  0  0  0  0  0  0  0  0  0
    0.5980   59.6983   76.4233 H   0  0  0  0  0  0  0  0  0  0  0  0
   -0.8603   62.9973   84.7176 C   0  0  0  0  0  0  0  0  0  0  0  0
   -0.8856   62.6432   86.0588 C   0  0  0  0  0  0  0  0  0  0  0  0
   -0.1273   63.3970   86.9461 C   0  0  0  0  0  0  0  0  0  0  0  0
    0.6236   64.4676   86.4660 C   0  0  0  0  0  0  0  0  0  0  0  0
    0.6020   64.7600   85.1017 C   0  0  0  0  0  0  0  0  0  0  0  0
   -0.1369   64.0426   84.2162 N   0  0  0  0  0  0  0  0  0  0  0  0
    1.4006   65.9266   84.5585 C   0  0  0  0  0  0  0  0  0  0  0  0
    2.7365   65.5648   84.1984 O   0  0  0  0  0  0  0  0  0  0  0  0
    3.7622   65.9877   84.9981 C   0  0  0  0  0  0  0  0  0  0  0  0
    4.1680   67.3059   84.7698 C   0  0  0  0  0  0  0  0  0  0  0  0
    5.2014   67.8738   85.5168 C   0  0  0  0  0  0  0  0  0  0  0  0
    5.8352   67.1247   86.5042 C   0  0  0  0  0  0  0  0  0  0  0  0
    5.4327   65.8121   86.7427 C   0  0  0  0  0  0  0  0  0  0  0  0
    4.3977   65.2436   85.9928 C   0  0  0  0  0  0  0  0  0  0  0  0
  5  6  1  0  0  0
  6  7  1  0  0  0
  7  1  1  0  0  0
  1  2  1  0  0  0
  2  3  2  0  0  0
  2 18  1  0  0  0
 18 19  1  0  0  0
 19 20  2  0  0  0
 20 21  1  0  0  0
 21 22  2  0  0  0
 22 24  1  0  0  0
 24 25  1  0  0  0
 25 26  1  0  0  0
 26 27  2  0  0  0
 27 28  1  0  0  0
 28 29  2  0  0  0
 29 30  1  0  0  0
 30 31  2  0  0  0
 22 23  1  0  0  0
  7  8  2  0  0  0
  8  9  1  0  0  0
  9 10  2  0  0  0
 10 11  1  0  0  0
 11 12  1  0  0  0
 12 13  2  0  0  0
 12 14  1  0  0  0
 14 15  1  0  0  0
 11  6  2  0  0  0
 23 18  2  0  0  0
 31 26  1  0  0  0
  1  4  1  0  0  0
 14 16  1  0  0  0
 15 17  1  0  0  0
M  END
> <minimizedAffinity>
-10.38918

$$$$



 31 33  0  0  0  0  0  0  0  0999 V2000
   -1.3746   62.5405   82.1701 N   0  0  0  0  0  0  0  0  0  0  0  0
   -1.6251   62.1060   83.4595 C   0  0  0  0  0  0  0  0  0  0  0  0
   -2.3455   61.1796   83.8088 O   0  0  0  0  0  0  0  0  0  0  0  0
   -0.7395   63.3334   82.1435 H   0  0  0  0  0  0  0  0  0  0  0  0
    0.4723   61.4236   80.2515 C   0  0  0  0  0  0  0  0  0  0  0  0
   -1.0083   61.5383   79.9768 C   0  0  0  0  0  0  0  0  0  0  0  0
   -1.8963   62.0600   80.9503 C   0  0  0  0  0  0  0  0  0  0  0  0
   -3.2697   62.1055   80.6742 C   0  0  0  0  0  0  0  0  0  0  0  0
   -3.7765   61.6801   79.4464 C   0  0  0  0  0  0  0  0  0  0  0  0
   -2.9124   61.2104   78.4670 C   0  0  0  0  0  0  0  0  0  0  0  0
   -1.5357   61.1415   78.7246 C   0  0  0  0  0  0  0  0  0  0  0  0
   -0.6574   60.6755   77.6199 C   0  0  0  0  0  0  0  0  0  0  0  0
   -0.0221   61.4563   76.9186 O   0  0  0  0  0  0  0  0  0  0  0  0
   -0.5804   59.3089   77.4633 N   0  0  0  0  0  0  0  0  0  0  0  0
    0.4107   58.8666   76.5545 O   0  0  0  0  0  0  0  0  0  0  0  0
   -0.8272   58.6657   78.2084 H   0  0  0  0  0  0  0  0  0  0  0  0
    0.7609   59.7143   76.2003 H   0  0  0  0  0  0  0  0  0  0  0  0
   -0.8820   62.9102   84.4884 C   0  0  0  0  0  0  0  0  0  0  0  0
   -0.9456   62.5598   85.8293 C   0  0  0  0  0  0  0  0  0  0  0  0
   -0.2354   63.3333   86.7392 C   0  0  0  0  0  0  0  0  0  0  0  0
    0.5074   64.4191   86.2810 C   0  0  0  0  0  0  0  0  0  0  0  0
    0.5263   64.7067   84.9158 C   0  0  0  0  0  0  0  0  0  0  0  0
   -0.1653   63.9700   84.0081 N   0  0  0  0  0  0  0  0  0  0  0  0
    1.3169   65.8892   84.3958 C   0  0  0  0  0  0  0  0  0  0  0  0
    1.5890   65.8019   82.9945 O   0  0  0  0  0  0  0  0  0  0  0  0
    1.0852   66.7721   82.1729 C   0  0  0  0  0  0  0  0  0  0  0  0
    0.1517   66.3122   81.2394 C   0  0  0  0  0  0  0  0  0  0  0  0
   -0.4504   67.1927   80.3391 C   0  0  0  0  0  0  0  0  0  0  0  0
   -0.1243   68.5457   80.3701 C   0  0  0  0  0  0  0  0  0  0  0  0
    0.8004   69.0138   81.3017 C   0  0  0  0  0  0  0  0  0  0  0  0
    1.4039   68.1303   82.2028 C   0  0  0  0  0  0  0  0  0  0  0  0
  5  6  1  0  0  0
  6  7  1  0  0  0
  7  1  1  0  0  0
  1  2  1  0  0  0
  2  3  2  0  0  0
  2 18  1  0  0  0
 18 19  1  0  0  0
 19 20  2  0  0  0
 20 21  1  0  0  0
 21 22  2  0  0  0
 22 24  1  0  0  0
 24 25  1  0  0  0
 25 26  1  0  0  0
 26 27  2  0  0  0
 27 28  1  0  0  0
 28 29  2  0  0  0
 29 30  1  0  0  0
 30 31  2  0  0  0
 22 23  1  0  0  0
  7  8  2  0  0  0
  8  9  1  0  0  0
  9 10  2  0  0  0
 10 11  1  0  0  0
 11 12  1  0  0  0
 12 13  2  0  0  0
 12 14  1  0  0  0
 14 15  1  0  0  0
 11  6  2  0  0  0
 23 18  2  0  0  0
 31 26  1  0  0  0
  1  4  1  0  0  0
 14 16  1  0  0  0
 15 17  1  0  0  0
M  END
> <minimizedAffinity>
-10.30108

$$$$



 31 33  0  0  0  0  0  0  0  0999 V2000
    0.5700   65.7717   82.3474 N   0  0  0  0  0  0  0  0  0  0  0  0
    0.2659   65.0502   81.2067 C   0  0  0  0  0  0  0  0  0  0  0  0
    0.7189   65.2080   80.0802 O   0  0  0  0  0  0  0  0  0  0  0  0
    0.0567   65.4462   83.1618 H   0  0  0  0  0  0  0  0  0  0  0  0
    2.7656   65.5186   84.2060 C   0  0  0  0  0  0  0  0  0  0  0  0
    2.5042   66.7883   83.4311 C   0  0  0  0  0  0  0  0  0  0  0  0
    1.4389   66.8729   82.5005 C   0  0  0  0  0  0  0  0  0  0  0  0
    1.2590   68.0535   81.7665 C   0  0  0  0  0  0  0  0  0  0  0  0
    2.0864   69.1597   81.9593 C   0  0  0  0  0  0  0  0  0  0  0  0
    3.1045   69.1059   82.9011 C   0  0  0  0  0  0  0  0  0  0  0  0
    3.3137   67.9310   83.6374 C   0  0  0  0  0  0  0  0  0  0  0  0
    4.3879   67.9517   84.6644 C   0  0  0  0  0  0  0  0  0  0  0  0
    5.5703   67.8005   84.3742 O   0  0  0  0  0  0  0  0  0  0  0  0
    3.9666   68.1872   85.9547 N   0  0  0  0  0  0  0  0  0  0  0  0
    5.0047   68.4129   86.8903 O   0  0  0  0  0  0  0  0  0  0  0  0
    3.0733   68.6230   86.1596 H   0  0  0  0  0  0  0  0  0  0  0  0
    5.8103   68.2648   86.3465 H   0  0  0  0  0  0  0  0  0  0  0  0
   -0.7354   63.9611   81.4691 C   0  0  0  0  0  0  0  0  0  0  0  0
   -1.2308   63.1994   80.4206 C   0  0  0  0  0  0  0  0  0  0  0  0
   -2.1504   62.2013   80.7182 C   0  0  0  0  0  0  0  0  0  0  0  0
   -2.5381   62.0006   82.0411 C   0  0  0  0  0  0  0  0  0  0  0  0
   -1.9922   62.8044   83.0425 C   0  0  0  0  0  0  0  0  0  0  0  0
   -1.0975   63.7910   82.7757 N   0  0  0  0  0  0  0  0  0  0  0  0
   -2.4077   62.6128   84.4863 C   0  0  0  0  0  0  0  0  0  0  0  0
   -1.4921   61.7988   85.2239 O   0  0  0  0  0  0  0  0  0  0  0  0
   -0.7568   62.3844   86.2173 C   0  0  0  0  0  0  0  0  0  0  0  0
   -0.8671   61.7602   87.4633 C   0  0  0  0  0  0  0  0  0  0  0  0
   -0.1674   62.2460   88.5691 C   0  0  0  0  0  0  0  0  0  0  0  0
    0.6543   63.3616   88.4337 C   0  0  0  0  0  0  0  0  0  0  0  0
    0.7751   63.9860   87.1937 C   0  0  0  0  0  0  0  0  0  0  0  0
    0.0726   63.4989   86.0865 C   0  0  0  0  0  0  0  0  0  0  0  0
  5  6  1  0  0  0
  6  7  1  0  0  0
  7  1  1  0  0  0
  1  2  1  0  0  0
  2  3  2  0  0  0
  2 18  1  0  0  0
 18 19  1  0  0  0
 19 20  2  0  0  0
 20 21  1  0  0  0
 21 22  2  0  0  0
 22 24  1  0  0  0
 24 25  1  0  0  0
 25 26  1  0  0  0
 26 27  2  0  0  0
 27 28  1  0  0  0
 28 29  2  0  0  0
 29 30  1  0  0  0
 30 31  2  0  0  0
 22 23  1  0  0  0
  7  8  2  0  0  0
  8  9  1  0  0  0
  9 10  2  0  0  0
 10 11  1  0  0  0
 11 12  1  0  0  0
 12 13  2  0  0  0
 12 14  1  0  0  0
 14 15  1  0  0  0
 11  6  2  0  0  0
 23 18  2  0  0  0
 31 26  1  0  0  0
  1  4  1  0  0  0
 14 16  1  0  0  0
 15 17  1  0  0  0
M  END
> <minimizedAffinity>
-10.06475

$$$$



 31 33  0  0  0  0  0  0  0  0999 V2000
   -0.1183   62.9353   80.9127 N   0  0  0  0  0  0  0  0  0  0  0  0
    0.5337   62.3154   81.9638 C   0  0  0  0  0  0  0  0  0  0  0  0
    1.1156   61.2381   81.9506 O   0  0  0  0  0  0  0  0  0  0  0  0
   -0.5257   63.8273   81.1797 H   0  0  0  0  0  0  0  0  0  0  0  0
   -2.1420   60.9309   80.4369 C   0  0  0  0  0  0  0  0  0  0  0  0
   -1.2680   61.4760   79.3324 C   0  0  0  0  0  0  0  0  0  0  0  0
   -0.3055   62.4838   79.5890 C   0  0  0  0  0  0  0  0  0  0  0  0
    0.4528   62.9969   78.5277 C   0  0  0  0  0  0  0  0  0  0  0  0
    0.3039   62.5102   77.2291 C   0  0  0  0  0  0  0  0  0  0  0  0
   -0.6024   61.4908   76.9724 C   0  0  0  0  0  0  0  0  0  0  0  0
   -1.3830   60.9711   78.0150 C   0  0  0  0  0  0  0  0  0  0  0  0
   -2.2999   59.8484   77.6864 C   0  0  0  0  0  0  0  0  0  0  0  0
   -1.9966   58.6776   77.8917 O   0  0  0  0  0  0  0  0  0  0  0  0
   -3.5231   60.2169   77.1705 N   0  0  0  0  0  0  0  0  0  0  0  0
   -4.4644   59.1657   77.0563 O   0  0  0  0  0  0  0  0  0  0  0  0
   -3.9028   61.1495   77.2959 H   0  0  0  0  0  0  0  0  0  0  0  0
   -3.9366   58.3834   77.3320 H   0  0  0  0  0  0  0  0  0  0  0  0
    0.4836   63.1279   83.2267 C   0  0  0  0  0  0  0  0  0  0  0  0
   -0.0917   62.6015   84.3742 C   0  0  0  0  0  0  0  0  0  0  0  0
   -0.1074   63.3921   85.5167 C   0  0  0  0  0  0  0  0  0  0  0  0
    0.4484   64.6688   85.4728 C   0  0  0  0  0  0  0  0  0  0  0  0
    1.0133   65.1275   84.2822 C   0  0  0  0  0  0  0  0  0  0  0  0
    1.0340   64.3763   83.1507 N   0  0  0  0  0  0  0  0  0  0  0  0
    1.6124   66.5164   84.2071 C   0  0  0  0  0  0  0  0  0  0  0  0
    2.9910   66.5063   83.8268 O   0  0  0  0  0  0  0  0  0  0  0  0
    3.9365   66.6297   84.8072 C   0  0  0  0  0  0  0  0  0  0  0  0
    4.4847   65.4179   85.2379 C   0  0  0  0  0  0  0  0  0  0  0  0
    5.4658   65.3914   86.2304 C   0  0  0  0  0  0  0  0  0  0  0  0
    5.9100   66.5825   86.7976 C   0  0  0  0  0  0  0  0  0  0  0  0
    5.3736   67.7954   86.3696 C   0  0  0  0  0  0  0  0  0  0  0  0
    4.3896   67.8207   85.3756 C   0  0  0  0  0  0  0  0  0  0  0  0
  5  6  1  0  0  0
  6  7  1  0  0  0
  7  1  1  0  0  0
  1  2  1  0  0  0
  2  3  2  0  0  0
  2 18  1  0  0  0
 18 19  1  0  0  0
 19 20  2  0  0  0
 20 21  1  0  0  0
 21 22  2  0  0  0
 22 24  1  0  0  0
 24 25  1  0  0  0
 25 26  1  0  0  0
 26 27  2  0  0  0
 27 28  1  0  0  0
 28 29  2  0  0  0
 29 30  1  0  0  0
 30 31  2  0  0  0
 22 23  1  0  0  0
  7  8  2  0  0  0
  8  9  1  0  0  0
  9 10  2  0  0  0
 10 11  1  0  0  0
 11 12  1  0  0  0
 12 13  2  0  0  0
 12 14  1  0  0  0
 14 15  1  0  0  0
 11  6  2  0  0  0
 23 18  2  0  0  0
 31 26  1  0  0  0
  1  4  1  0  0  0
 14 16  1  0  0  0
 15 17  1  0  0  0
M  END
> <minimizedAffinity>
-10.06387

$$$$



 31 33  0  0  0  0  0  0  0  0999 V2000
   -0.0031   63.3595   80.9719 N   0  0  0  0  0  0  0  0  0  0  0  0
    0.1325   64.7321   81.0806 C   0  0  0  0  0  0  0  0  0  0  0  0
   -0.0465   65.5717   80.2075 O   0  0  0  0  0  0  0  0  0  0  0  0
    0.2049   62.8781   81.8425 H   0  0  0  0  0  0  0  0  0  0  0  0
   -2.4039   61.7600   81.1036 C   0  0  0  0  0  0  0  0  0  0  0  0
   -1.4996   61.7634   79.8940 C   0  0  0  0  0  0  0  0  0  0  0  0
   -0.3453   62.5840   79.8439 C   0  0  0  0  0  0  0  0  0  0  0  0
    0.4417   62.5938   78.6841 C   0  0  0  0  0  0  0  0  0  0  0  0
    0.1312   61.7851   77.5909 C   0  0  0  0  0  0  0  0  0  0  0  0
   -0.9702   60.9422   77.6450 C   0  0  0  0  0  0  0  0  0  0  0  0
   -1.7813   60.9252   78.7887 C   0  0  0  0  0  0  0  0  0  0  0  0
   -2.9173   59.9669   78.8052 C   0  0  0  0  0  0  0  0  0  0  0  0
   -3.7327   59.9065   77.8906 O   0  0  0  0  0  0  0  0  0  0  0  0
   -2.9683   59.1307   79.8989 N   0  0  0  0  0  0  0  0  0  0  0  0
   -3.9215   58.0880   79.8098 O   0  0  0  0  0  0  0  0  0  0  0  0
   -2.1546   58.9486   80.4773 H   0  0  0  0  0  0  0  0  0  0  0  0
   -4.3727   58.2911   78.9602 H   0  0  0  0  0  0  0  0  0  0  0  0
    0.5390   65.1589   82.4627 C   0  0  0  0  0  0  0  0  0  0  0  0
    0.1595   64.4084   83.5661 C   0  0  0  0  0  0  0  0  0  0  0  0
    0.5662   64.8439   84.8213 C   0  0  0  0  0  0  0  0  0  0  0  0
    1.3320   66.0026   84.9284 C   0  0  0  0  0  0  0  0  0  0  0  0
    1.6785   66.7019   83.7717 C   0  0  0  0  0  0  0  0  0  0  0  0
    1.2868   66.3004   82.5346 N   0  0  0  0  0  0  0  0  0  0  0  0
    2.5000   67.9709   83.8643 C   0  0  0  0  0  0  0  0  0  0  0  0
    3.9028   67.7361   83.7147 O   0  0  0  0  0  0  0  0  0  0  0  0
    4.5907   67.2124   84.7743 C   0  0  0  0  0  0  0  0  0  0  0  0
    5.0009   65.8874   84.5996 C   0  0  0  0  0  0  0  0  0  0  0  0
    5.7180   65.2251   85.5973 C   0  0  0  0  0  0  0  0  0  0  0  0
    6.0345   65.8885   86.7796 C   0  0  0  0  0  0  0  0  0  0  0  0
    5.6351   67.2114   86.9593 C   0  0  0  0  0  0  0  0  0  0  0  0
    4.9155   67.8738   85.9592 C   0  0  0  0  0  0  0  0  0  0  0  0
  5  6  1  0  0  0
  6  7  1  0  0  0
  7  1  1  0  0  0
  1  2  1  0  0  0
  2  3  2  0  0  0
  2 18  1  0  0  0
 18 19  1  0  0  0
 19 20  2  0  0  0
 20 21  1  0  0  0
 21 22  2  0  0  0
 22 24  1  0  0  0
 24 25  1  0  0  0
 25 26  1  0  0  0
 26 27  2  0  0  0
 27 28  1  0  0  0
 28 29  2  0  0  0
 29 30  1  0  0  0
 30 31  2  0  0  0
 22 23  1  0  0  0
  7  8  2  0  0  0
  8  9  1  0  0  0
  9 10  2  0  0  0
 10 11  1  0  0  0
 11 12  1  0  0  0
 12 13  2  0  0  0
 12 14  1  0  0  0
 14 15  1  0  0  0
 11  6  2  0  0  0
 23 18  2  0  0  0
 31 26  1  0  0  0
  1  4  1  0  0  0
 14 16  1  0  0  0
 15 17  1  0  0  0
M  END
> <minimizedAffinity>
-9.90865

$$$$



 31 33  0  0  0  0  0  0  0  0999 V2000
    1.7270   65.7957   84.9386 N   0  0  0  0  0  0  0  0  0  0  0  0
    0.9634   64.8811   84.2353 C   0  0  0  0  0  0  0  0  0  0  0  0
    0.9825   64.6616   83.0308 O   0  0  0  0  0  0  0  0  0  0  0  0
    1.5228   65.7889   85.9341 H   0  0  0  0  0  0  0  0  0  0  0  0
    4.4950   65.3635   85.6388 C   0  0  0  0  0  0  0  0  0  0  0  0
    4.0444   66.5464   84.8151 C   0  0  0  0  0  0  0  0  0  0  0  0
    2.6834   66.7153   84.4582 C   0  0  0  0  0  0  0  0  0  0  0  0
    2.3133   67.8009   83.6526 C   0  0  0  0  0  0  0  0  0  0  0  0
    3.2526   68.7387   83.2242 C   0  0  0  0  0  0  0  0  0  0  0  0
    4.5811   68.6106   83.6053 C   0  0  0  0  0  0  0  0  0  0  0  0
    4.9786   67.5250   84.3989 C   0  0  0  0  0  0  0  0  0  0  0  0
    6.4046   67.4694   84.8140 C   0  0  0  0  0  0  0  0  0  0  0  0
    6.7930   67.9422   85.8773 O   0  0  0  0  0  0  0  0  0  0  0  0
    7.2490   66.8206   83.9398 N   0  0  0  0  0  0  0  0  0  0  0  0
    8.5555   66.5881   84.4329 O   0  0  0  0  0  0  0  0  0  0  0  0
    6.9065   66.1646   83.2455 H   0  0  0  0  0  0  0  0  0  0  0  0
    8.5326   67.0428   85.3043 H   0  0  0  0  0  0  0  0  0  0  0  0
    0.0382   64.1027   85.1273 C   0  0  0  0  0  0  0  0  0  0  0  0
    0.1676   64.1798   86.5064 C   0  0  0  0  0  0  0  0  0  0  0  0
   -0.7169   63.4445   87.2859 C   0  0  0  0  0  0  0  0  0  0  0  0
   -1.6915   62.6663   86.6652 C   0  0  0  0  0  0  0  0  0  0  0  0
   -1.7623   62.6431   85.2718 C   0  0  0  0  0  0  0  0  0  0  0  0
   -0.9045   63.3472   84.4886 N   0  0  0  0  0  0  0  0  0  0  0  0
   -2.8055   61.7949   84.5746 C   0  0  0  0  0  0  0  0  0  0  0  0
   -2.2385   60.8832   83.6299 O   0  0  0  0  0  0  0  0  0  0  0  0
   -2.6663   60.9425   82.3323 C   0  0  0  0  0  0  0  0  0  0  0  0
   -2.9198   59.6973   81.7494 C   0  0  0  0  0  0  0  0  0  0  0  0
   -3.3679   59.6049   80.4306 C   0  0  0  0  0  0  0  0  0  0  0  0
   -3.5703   60.7627   79.6848 C   0  0  0  0  0  0  0  0  0  0  0  0
   -3.3262   62.0083   80.2602 C   0  0  0  0  0  0  0  0  0  0  0  0
   -2.8762   62.0997   81.5815 C   0  0  0  0  0  0  0  0  0  0  0  0
  5  6  1  0  0  0
  6  7  1  0  0  0
  7  1  1  0  0  0
  1  2  1  0  0  0
  2  3  2  0  0  0
  2 18  1  0  0  0
 18 19  1  0  0  0
 19 20  2  0  0  0
 20 21  1  0  0  0
 21 22  2  0  0  0
 22 24  1  0  0  0
 24 25  1  0  0  0
 25 26  1  0  0  0
 26 27  2  0  0  0
 27 28  1  0  0  0
 28 29  2  0  0  0
 29 30  1  0  0  0
 30 31  2  0  0  0
 22 23  1  0  0  0
  7  8  2  0  0  0
  8  9  1  0  0  0
  9 10  2  0  0  0
 10 11  1  0  0  0
 11 12  1  0  0  0
 12 13  2  0  0  0
 12 14  1  0  0  0
 14 15  1  0  0  0
 11  6  2  0  0  0
 23 18  2  0  0  0
 31 26  1  0  0  0
  1  4  1  0  0  0
 14 16  1  0  0  0
 15 17  1  0  0  0
M  END
> <minimizedAffinity>
-9.87384

$$$$



 31 33  0  0  0  0  0  0  0  0999 V2000
   -1.2162   62.9005   83.0775 N   0  0  0  0  0  0  0  0  0  0  0  0
   -0.7891   61.8967   82.2265 C   0  0  0  0  0  0  0  0  0  0  0  0
    0.2709   61.2852   82.2657 O   0  0  0  0  0  0  0  0  0  0  0  0
   -2.1381   63.2515   82.8330 H   0  0  0  0  0  0  0  0  0  0  0  0
   -1.7190   61.8353   85.7142 C   0  0  0  0  0  0  0  0  0  0  0  0
   -0.7985   63.0090   85.4780 C   0  0  0  0  0  0  0  0  0  0  0  0
   -0.5441   63.4896   84.1694 C   0  0  0  0  0  0  0  0  0  0  0  0
    0.3536   64.5508   83.9888 C   0  0  0  0  0  0  0  0  0  0  0  0
    0.9751   65.1669   85.0749 C   0  0  0  0  0  0  0  0  0  0  0  0
    0.6990   64.7363   86.3652 C   0  0  0  0  0  0  0  0  0  0  0  0
   -0.1844   63.6669   86.5707 C   0  0  0  0  0  0  0  0  0  0  0  0
   -0.4765   63.2839   87.9768 C   0  0  0  0  0  0  0  0  0  0  0  0
   -1.6077   63.3452   88.4476 O   0  0  0  0  0  0  0  0  0  0  0  0
    0.6022   62.8235   88.6995 N   0  0  0  0  0  0  0  0  0  0  0  0
    0.2824   62.2671   89.9613 O   0  0  0  0  0  0  0  0  0  0  0  0
    1.4407   62.4694   88.2509 H   0  0  0  0  0  0  0  0  0  0  0  0
   -0.6856   62.4291   90.0204 H   0  0  0  0  0  0  0  0  0  0  0  0
   -1.8050   61.5742   81.1675 C   0  0  0  0  0  0  0  0  0  0  0  0
   -3.1357   61.9241   81.3454 C   0  0  0  0  0  0  0  0  0  0  0  0
   -4.0335   61.6078   80.3333 C   0  0  0  0  0  0  0  0  0  0  0  0
   -3.5738   60.9599   79.1889 C   0  0  0  0  0  0  0  0  0  0  0  0
   -2.2189   60.6441   79.0802 C   0  0  0  0  0  0  0  0  0  0  0  0
   -1.3236   60.9363   80.0590 N   0  0  0  0  0  0  0  0  0  0  0  0
   -1.6982   59.9289   77.8509 C   0  0  0  0  0  0  0  0  0  0  0  0
   -0.6552   60.6500   77.1895 O   0  0  0  0  0  0  0  0  0  0  0  0
   -0.7614   62.0105   77.1002 C   0  0  0  0  0  0  0  0  0  0  0  0
    0.2575   62.7141   77.7494 C   0  0  0  0  0  0  0  0  0  0  0  0
    0.2809   64.1096   77.7366 C   0  0  0  0  0  0  0  0  0  0  0  0
   -0.7167   64.8133   77.0677 C   0  0  0  0  0  0  0  0  0  0  0  0
   -1.7325   64.1198   76.4126 C   0  0  0  0  0  0  0  0  0  0  0  0
   -1.7556   62.7213   76.4269 C   0  0  0  0  0  0  0  0  0  0  0  0
  5  6  1  0  0  0
  6  7  1  0  0  0
  7  1  1  0  0  0
  1  2  1  0  0  0
  2  3  2  0  0  0
  2 18  1  0  0  0
 18 19  1  0  0  0
 19 20  2  0  0  0
 20 21  1  0  0  0
 21 22  2  0  0  0
 22 24  1  0  0  0
 24 25  1  0  0  0
 25 26  1  0  0  0
 26 27  2  0  0  0
 27 28  1  0  0  0
 28 29  2  0  0  0
 29 30  1  0  0  0
 30 31  2  0  0  0
 22 23  1  0  0  0
  7  8  2  0  0  0
  8  9  1  0  0  0
  9 10  2  0  0  0
 10 11  1  0  0  0
 11 12  1  0  0  0
 12 13  2  0  0  0
 12 14  1  0  0  0
 14 15  1  0  0  0
 11  6  2  0  0  0
 23 18  2  0  0  0
 31 26  1  0  0  0
  1  4  1  0  0  0
 14 16  1  0  0  0
 15 17  1  0  0  0
M  END
> <minimizedAffinity>
-9.84614

$$$$



 31 33  0  0  0  0  0  0  0  0999 V2000
   -1.0573   63.6002   81.3574 N   0  0  0  0  0  0  0  0  0  0  0  0
    0.1195   63.9142   82.0137 C   0  0  0  0  0  0  0  0  0  0  0  0
    0.8505   63.1572   82.6397 O   0  0  0  0  0  0  0  0  0  0  0  0
   -1.4817   64.4089   80.9118 H   0  0  0  0  0  0  0  0  0  0  0  0
   -1.1490   62.2965   78.7823 C   0  0  0  0  0  0  0  0  0  0  0  0
   -1.8132   61.7146   80.0075 C   0  0  0  0  0  0  0  0  0  0  0  0
   -1.7234   62.3596   81.2661 C   0  0  0  0  0  0  0  0  0  0  0  0
   -2.3136   61.7626   82.3885 C   0  0  0  0  0  0  0  0  0  0  0  0
   -3.0182   60.5633   82.2849 C   0  0  0  0  0  0  0  0  0  0  0  0
   -3.1531   59.9451   81.0496 C   0  0  0  0  0  0  0  0  0  0  0  0
   -2.5593   60.5153   79.9145 C   0  0  0  0  0  0  0  0  0  0  0  0
   -2.7800   59.8321   78.6131 C   0  0  0  0  0  0  0  0  0  0  0  0
   -2.0565   58.9210   78.2241 O   0  0  0  0  0  0  0  0  0  0  0  0
   -3.8713   60.2691   77.8947 N   0  0  0  0  0  0  0  0  0  0  0  0
   -4.1975   59.4808   76.7650 O   0  0  0  0  0  0  0  0  0  0  0  0
   -4.6385   60.7706   78.3303 H   0  0  0  0  0  0  0  0  0  0  0  0
   -3.4671   58.8227   76.7531 H   0  0  0  0  0  0  0  0  0  0  0  0
    0.4745   65.3687   81.8866 C   0  0  0  0  0  0  0  0  0  0  0  0
    0.0624   66.0946   80.7785 C   0  0  0  0  0  0  0  0  0  0  0  0
    0.4125   67.4376   80.7126 C   0  0  0  0  0  0  0  0  0  0  0  0
    1.1542   68.0029   81.7475 C   0  0  0  0  0  0  0  0  0  0  0  0
    1.5284   67.2092   82.8325 C   0  0  0  0  0  0  0  0  0  0  0  0
    1.2045   65.8928   82.9161 N   0  0  0  0  0  0  0  0  0  0  0  0
    2.3453   67.7987   83.9634 C   0  0  0  0  0  0  0  0  0  0  0  0
    3.7429   67.5211   83.8418 O   0  0  0  0  0  0  0  0  0  0  0  0
    4.3798   66.9196   84.8920 C   0  0  0  0  0  0  0  0  0  0  0  0
    4.9619   67.8079   85.8010 C   0  0  0  0  0  0  0  0  0  0  0  0
    5.6408   67.3353   86.9253 C   0  0  0  0  0  0  0  0  0  0  0  0
    5.7383   65.9650   87.1507 C   0  0  0  0  0  0  0  0  0  0  0  0
    5.1553   65.0726   86.2530 C   0  0  0  0  0  0  0  0  0  0  0  0
    4.4761   65.5474   85.1261 C   0  0  0  0  0  0  0  0  0  0  0  0
  5  6  1  0  0  0
  6  7  1  0  0  0
  7  1  1  0  0  0
  1  2  1  0  0  0
  2  3  2  0  0  0
  2 18  1  0  0  0
 18 19  1  0  0  0
 19 20  2  0  0  0
 20 21  1  0  0  0
 21 22  2  0  0  0
 22 24  1  0  0  0
 24 25  1  0  0  0
 25 26  1  0  0  0
 26 27  2  0  0  0
 27 28  1  0  0  0
 28 29  2  0  0  0
 29 30  1  0  0  0
 30 31  2  0  0  0
 22 23  1  0  0  0
  7  8  2  0  0  0
  8  9  1  0  0  0
  9 10  2  0  0  0
 10 11  1  0  0  0
 11 12  1  0  0  0
 12 13  2  0  0  0
 12 14  1  0  0  0
 14 15  1  0  0  0
 11  6  2  0  0  0
 23 18  2  0  0  0
 31 26  1  0  0  0
  1  4  1  0  0  0
 14 16  1  0  0  0
 15 17  1  0  0  0
M  END
> <minimizedAffinity>
-9.82269

$$$$
