


 23 25  0  0  0  0  0  0  0  0999 V2000
    0.5852   64.1635   85.8103 C   0  0  0  0  0  0  0  0  0  0  0  0
    0.5524   64.2148   87.1560 N   0  0  0  0  0  0  0  0  0  0  0  0
   -0.5166   63.4482   87.4877 N   0  0  0  0  0  0  0  0  0  0  0  0
   -0.8700   63.2673   88.8750 C   0  0  0  0  0  0  0  0  0  0  0  0
   -1.1516   62.9223   86.4072 C   0  0  0  0  0  0  0  0  0  0  0  0
   -2.2886   62.0847   86.3027 C   0  0  0  0  0  0  0  0  0  0  0  0
   -2.9490   61.6522   87.2399 O   0  0  0  0  0  0  0  0  0  0  0  0
   -2.5778   61.8022   84.9882 N   0  0  0  0  0  0  0  0  0  0  0  0
   -1.8519   62.2753   83.8995 C   0  0  0  0  0  0  0  0  0  0  0  0
   -0.8030   63.0475   84.0048 N   0  0  0  0  0  0  0  0  0  0  0  0
   -0.4620   63.3669   85.3199 C   0  0  0  0  0  0  0  0  0  0  0  0
   -3.3807   61.2062   84.8230 H   0  0  0  0  0  0  0  0  0  0  0  0
   -2.3364   61.8497   82.5417 C   0  0  0  0  0  0  0  0  0  0  0  0
   -2.0797   62.7072   81.4582 C   0  0  0  0  0  0  0  0  0  0  0  0
   -2.4996   62.3789   80.1668 C   0  0  0  0  0  0  0  0  0  0  0  0
   -3.1828   61.1879   79.9388 C   0  0  0  0  0  0  0  0  0  0  0  0
   -3.4480   60.3225   80.9996 C   0  0  0  0  0  0  0  0  0  0  0  0
   -3.0275   60.6513   82.2931 C   0  0  0  0  0  0  0  0  0  0  0  0
   -3.3063   59.7756   83.3127 O   0  0  0  0  0  0  0  0  0  0  0  0
   -3.7858   59.0105   82.9456 H   0  0  0  0  0  0  0  0  0  0  0  0
    1.6316   64.8925   85.0415 C   0  0  0  0  0  0  0  0  0  0  0  0
    1.0655   65.8360   82.7735 C   0  0  0  0  0  0  0  0  0  0  0  0
    1.0574   66.0837   84.2734 C   0  0  0  0  0  0  0  0  0  0  0  0
 22 23  1  0  0  0
 23 21  1  0  0  0
 21  1  1  0  0  0
  1  2  2  0  0  0
  2  3  1  0  0  0
  3  4  1  0  0  0
  3  5  1  0  0  0
  5  6  1  0  0  0
  6  7  2  0  0  0
  6  8  1  0  0  0
  8  9  1  0  0  0
  9 13  1  0  0  0
 13 14  2  0  0  0
 14 15  1  0  0  0
 15 16  2  0  0  0
 16 17  1  0  0  0
 17 18  2  0  0  0
 18 19  1  0  0  0
  9 10  2  0  0  0
 10 11  1  0  0  0
 11  1  1  0  0  0
 11  5  2  0  0  0
 18 13  1  0  0  0
  8 12  1  0  0  0
 19 20  1  0  0  0
M  END
> <minimizedAffinity>
-9.04696

$$$$



 23 25  0  0  0  0  0  0  0  0999 V2000
    0.1732   64.1547   81.6723 C   0  0  0  0  0  0  0  0  0  0  0  0
    0.7034   65.0718   80.8402 N   0  0  0  0  0  0  0  0  0  0  0  0
    1.2526   65.9917   81.6725 N   0  0  0  0  0  0  0  0  0  0  0  0
    1.9243   67.1462   81.1267 C   0  0  0  0  0  0  0  0  0  0  0  0
    1.0868   65.6878   82.9868 C   0  0  0  0  0  0  0  0  0  0  0  0
    1.4922   66.3623   84.1641 C   0  0  0  0  0  0  0  0  0  0  0  0
    2.1128   67.4180   84.2081 O   0  0  0  0  0  0  0  0  0  0  0  0
    1.0979   65.6770   85.2894 N   0  0  0  0  0  0  0  0  0  0  0  0
    0.3923   64.4777   85.2783 C   0  0  0  0  0  0  0  0  0  0  0  0
    0.0227   63.8614   84.1870 N   0  0  0  0  0  0  0  0  0  0  0  0
    0.3978   64.5132   83.0112 C   0  0  0  0  0  0  0  0  0  0  0  0
    1.3485   66.0925   86.1792 H   0  0  0  0  0  0  0  0  0  0  0  0
    0.0561   63.8916   86.6210 C   0  0  0  0  0  0  0  0  0  0  0  0
   -1.2655   63.4638   86.8345 C   0  0  0  0  0  0  0  0  0  0  0  0
   -1.6526   62.9091   88.0569 C   0  0  0  0  0  0  0  0  0  0  0  0
   -0.7241   62.7736   89.0849 C   0  0  0  0  0  0  0  0  0  0  0  0
    0.5926   63.1916   88.8944 C   0  0  0  0  0  0  0  0  0  0  0  0
    0.9804   63.7472   87.6701 C   0  0  0  0  0  0  0  0  0  0  0  0
    2.2845   64.1477   87.5186 O   0  0  0  0  0  0  0  0  0  0  0  0
    2.7654   63.9670   88.3469 H   0  0  0  0  0  0  0  0  0  0  0  0
   -0.5380   62.9591   81.1411 C   0  0  0  0  0  0  0  0  0  0  0  0
    1.0922   61.1799   81.8700 C   0  0  0  0  0  0  0  0  0  0  0  0
    0.4311   61.8672   80.6860 C   0  0  0  0  0  0  0  0  0  0  0  0
 22 23  1  0  0  0
 23 21  1  0  0  0
 21  1  1  0  0  0
  1  2  2  0  0  0
  2  3  1  0  0  0
  3  4  1  0  0  0
  3  5  1  0  0  0
  5  6  1  0  0  0
  6  7  2  0  0  0
  6  8  1  0  0  0
  8  9  1  0  0  0
  9 13  1  0  0  0
 13 14  2  0  0  0
 14 15  1  0  0  0
 15 16  2  0  0  0
 16 17  1  0  0  0
 17 18  2  0  0  0
 18 19  1  0  0  0
  9 10  2  0  0  0
 10 11  1  0  0  0
 11  1  1  0  0  0
 11  5  2  0  0  0
 18 13  1  0  0  0
  8 12  1  0  0  0
 19 20  1  0  0  0
M  END
> <minimizedAffinity>
-8.94646

$$$$



 23 25  0  0  0  0  0  0  0  0999 V2000
   -1.0877   62.6104   83.8875 C   0  0  0  0  0  0  0  0  0  0  0  0
   -1.5305   61.8227   84.8866 N   0  0  0  0  0  0  0  0  0  0  0  0
   -0.9855   62.3698   86.0021 N   0  0  0  0  0  0  0  0  0  0  0  0
   -1.2446   61.7803   87.2934 C   0  0  0  0  0  0  0  0  0  0  0  0
   -0.2218   63.4634   85.7411 C   0  0  0  0  0  0  0  0  0  0  0  0
    0.5163   64.3179   86.5957 C   0  0  0  0  0  0  0  0  0  0  0  0
    0.6012   64.2147   87.8137 O   0  0  0  0  0  0  0  0  0  0  0  0
    1.1483   65.3088   85.8814 N   0  0  0  0  0  0  0  0  0  0  0  0
    1.0755   65.4566   84.4997 C   0  0  0  0  0  0  0  0  0  0  0  0
    0.3912   64.6638   83.7184 N   0  0  0  0  0  0  0  0  0  0  0  0
   -0.2732   63.6373   84.3912 C   0  0  0  0  0  0  0  0  0  0  0  0
    1.7011   65.9668   86.4185 H   0  0  0  0  0  0  0  0  0  0  0  0
    1.8437   66.6078   83.9129 C   0  0  0  0  0  0  0  0  0  0  0  0
    1.2877   67.2655   82.8022 C   0  0  0  0  0  0  0  0  0  0  0  0
    1.9437   68.3436   82.2030 C   0  0  0  0  0  0  0  0  0  0  0  0
    3.1660   68.7808   82.7051 C   0  0  0  0  0  0  0  0  0  0  0  0
    3.7356   68.1425   83.8063 C   0  0  0  0  0  0  0  0  0  0  0  0
    3.0787   67.0626   84.4066 C   0  0  0  0  0  0  0  0  0  0  0  0
    3.6691   66.4586   85.4884 O   0  0  0  0  0  0  0  0  0  0  0  0
    4.5108   66.9117   85.6789 H   0  0  0  0  0  0  0  0  0  0  0  0
   -1.4672   62.3395   82.4734 C   0  0  0  0  0  0  0  0  0  0  0  0
    0.7352   61.3946   81.6917 C   0  0  0  0  0  0  0  0  0  0  0  0
   -0.7440   61.1170   81.9066 C   0  0  0  0  0  0  0  0  0  0  0  0
 22 23  1  0  0  0
 23 21  1  0  0  0
 21  1  1  0  0  0
  1  2  2  0  0  0
  2  3  1  0  0  0
  3  4  1  0  0  0
  3  5  1  0  0  0
  5  6  1  0  0  0
  6  7  2  0  0  0
  6  8  1  0  0  0
  8  9  1  0  0  0
  9 13  1  0  0  0
 13 14  2  0  0  0
 14 15  1  0  0  0
 15 16  2  0  0  0
 16 17  1  0  0  0
 17 18  2  0  0  0
 18 19  1  0  0  0
  9 10  2  0  0  0
 10 11  1  0  0  0
 11  1  1  0  0  0
 11  5  2  0  0  0
 18 13  1  0  0  0
  8 12  1  0  0  0
 19 20  1  0  0  0
M  END
> <minimizedAffinity>
-8.82787

$$$$



 23 25  0  0  0  0  0  0  0  0999 V2000
    4.6666   67.1552   84.7679 C   0  0  0  0  0  0  0  0  0  0  0  0
    4.9801   68.2750   84.0879 N   0  0  0  0  0  0  0  0  0  0  0  0
    3.8862   68.5102   83.3207 N   0  0  0  0  0  0  0  0  0  0  0  0
    3.8573   69.6518   82.4386 C   0  0  0  0  0  0  0  0  0  0  0  0
    2.9053   67.5851   83.4927 C   0  0  0  0  0  0  0  0  0  0  0  0
    1.6259   67.4529   82.9003 C   0  0  0  0  0  0  0  0  0  0  0  0
    1.1405   68.2081   82.0663 O   0  0  0  0  0  0  0  0  0  0  0  0
    0.9681   66.3453   83.3818 N   0  0  0  0  0  0  0  0  0  0  0  0
    1.4874   65.4660   84.3270 C   0  0  0  0  0  0  0  0  0  0  0  0
    2.6691   65.5958   84.8694 N   0  0  0  0  0  0  0  0  0  0  0  0
    3.3832   66.7064   84.4172 C   0  0  0  0  0  0  0  0  0  0  0  0
    0.0414   66.1755   83.0083 H   0  0  0  0  0  0  0  0  0  0  0  0
    0.6051   64.3137   84.7186 C   0  0  0  0  0  0  0  0  0  0  0  0
    0.1833   63.4393   83.7023 C   0  0  0  0  0  0  0  0  0  0  0  0
   -0.6379   62.3463   83.9899 C   0  0  0  0  0  0  0  0  0  0  0  0
   -1.0503   62.1107   85.2982 C   0  0  0  0  0  0  0  0  0  0  0  0
   -0.6434   62.9658   86.3218 C   0  0  0  0  0  0  0  0  0  0  0  0
    0.1792   64.0606   86.0340 C   0  0  0  0  0  0  0  0  0  0  0  0
    0.5596   64.8809   87.0666 O   0  0  0  0  0  0  0  0  0  0  0  0
    0.1686   64.5445   87.8936 H   0  0  0  0  0  0  0  0  0  0  0  0
    5.6249   66.5538   85.7361 C   0  0  0  0  0  0  0  0  0  0  0  0
    7.9786   66.2378   84.8908 C   0  0  0  0  0  0  0  0  0  0  0  0
    6.6085   65.6003   85.0564 C   0  0  0  0  0  0  0  0  0  0  0  0
 22 23  1  0  0  0
 23 21  1  0  0  0
 21  1  1  0  0  0
  1  2  2  0  0  0
  2  3  1  0  0  0
  3  4  1  0  0  0
  3  5  1  0  0  0
  5  6  1  0  0  0
  6  7  2  0  0  0
  6  8  1  0  0  0
  8  9  1  0  0  0
  9 13  1  0  0  0
 13 14  2  0  0  0
 14 15  1  0  0  0
 15 16  2  0  0  0
 16 17  1  0  0  0
 17 18  2  0  0  0
 18 19  1  0  0  0
  9 10  2  0  0  0
 10 11  1  0  0  0
 11  1  1  0  0  0
 11  5  2  0  0  0
 18 13  1  0  0  0
  8 12  1  0  0  0
 19 20  1  0  0  0
M  END
> <minimizedAffinity>
-8.70392

$$$$



 23 25  0  0  0  0  0  0  0  0999 V2000
   -2.3948   62.1793   84.7688 C   0  0  0  0  0  0  0  0  0  0  0  0
   -2.9293   61.0840   84.1950 N   0  0  0  0  0  0  0  0  0  0  0  0
   -2.3501   61.0399   82.9690 N   0  0  0  0  0  0  0  0  0  0  0  0
   -2.6878   59.9792   82.0509 C   0  0  0  0  0  0  0  0  0  0  0  0
   -1.4787   62.0606   82.7540 C   0  0  0  0  0  0  0  0  0  0  0  0
   -0.6766   62.3893   81.6342 C   0  0  0  0  0  0  0  0  0  0  0  0
   -0.6216   61.7623   80.5828 O   0  0  0  0  0  0  0  0  0  0  0  0
    0.0575   63.5287   81.8668 N   0  0  0  0  0  0  0  0  0  0  0  0
    0.0203   64.2662   83.0463 C   0  0  0  0  0  0  0  0  0  0  0  0
   -0.7223   63.9553   84.0754 N   0  0  0  0  0  0  0  0  0  0  0  0
   -1.4903   62.8040   83.8952 C   0  0  0  0  0  0  0  0  0  0  0  0
    0.6611   63.8359   81.1130 H   0  0  0  0  0  0  0  0  0  0  0  0
    0.9007   65.4836   83.0972 C   0  0  0  0  0  0  0  0  0  0  0  0
    1.2104   66.1170   81.8815 C   0  0  0  0  0  0  0  0  0  0  0  0
    2.0227   67.2531   81.8497 C   0  0  0  0  0  0  0  0  0  0  0  0
    2.5381   67.7736   83.0332 C   0  0  0  0  0  0  0  0  0  0  0  0
    2.2433   67.1608   84.2507 C   0  0  0  0  0  0  0  0  0  0  0  0
    1.4297   66.0227   84.2826 C   0  0  0  0  0  0  0  0  0  0  0  0
    1.1611   65.4460   85.4988 O   0  0  0  0  0  0  0  0  0  0  0  0
    1.6115   65.9589   86.1946 H   0  0  0  0  0  0  0  0  0  0  0  0
   -2.7814   62.5873   86.1477 C   0  0  0  0  0  0  0  0  0  0  0  0
   -1.3464   63.3828   88.0614 C   0  0  0  0  0  0  0  0  0  0  0  0
   -1.7221   62.2017   87.1811 C   0  0  0  0  0  0  0  0  0  0  0  0
 22 23  1  0  0  0
 23 21  1  0  0  0
 21  1  1  0  0  0
  1  2  2  0  0  0
  2  3  1  0  0  0
  3  4  1  0  0  0
  3  5  1  0  0  0
  5  6  1  0  0  0
  6  7  2  0  0  0
  6  8  1  0  0  0
  8  9  1  0  0  0
  9 13  1  0  0  0
 13 14  2  0  0  0
 14 15  1  0  0  0
 15 16  2  0  0  0
 16 17  1  0  0  0
 17 18  2  0  0  0
 18 19  1  0  0  0
  9 10  2  0  0  0
 10 11  1  0  0  0
 11  1  1  0  0  0
 11  5  2  0  0  0
 18 13  1  0  0  0
  8 12  1  0  0  0
 19 20  1  0  0  0
M  END
> <minimizedAffinity>
-8.51950

$$$$



 23 25  0  0  0  0  0  0  0  0999 V2000
   -1.2667   62.5571   79.8302 C   0  0  0  0  0  0  0  0  0  0  0  0
   -1.8827   61.6160   79.0889 N   0  0  0  0  0  0  0  0  0  0  0  0
   -2.3880   60.7540   80.0066 N   0  0  0  0  0  0  0  0  0  0  0  0
   -3.1286   59.5939   79.5734 C   0  0  0  0  0  0  0  0  0  0  0  0
   -2.1127   61.1167   81.2872 C   0  0  0  0  0  0  0  0  0  0  0  0
   -2.4416   60.5124   82.5249 C   0  0  0  0  0  0  0  0  0  0  0  0
   -3.0828   59.4784   82.6700 O   0  0  0  0  0  0  0  0  0  0  0  0
   -1.9438   61.2403   83.5803 N   0  0  0  0  0  0  0  0  0  0  0  0
   -1.2118   62.4169   83.4541 C   0  0  0  0  0  0  0  0  0  0  0  0
   -0.9133   62.9683   82.3077 N   0  0  0  0  0  0  0  0  0  0  0  0
   -1.3949   62.2710   81.1989 C   0  0  0  0  0  0  0  0  0  0  0  0
   -2.1345   60.8761   84.5067 H   0  0  0  0  0  0  0  0  0  0  0  0
   -0.7574   63.0579   84.7355 C   0  0  0  0  0  0  0  0  0  0  0  0
    0.2476   64.0371   84.6555 C   0  0  0  0  0  0  0  0  0  0  0  0
    0.7209   64.6766   85.8039 C   0  0  0  0  0  0  0  0  0  0  0  0
    0.1966   64.3468   87.0503 C   0  0  0  0  0  0  0  0  0  0  0  0
   -0.8012   63.3780   87.1525 C   0  0  0  0  0  0  0  0  0  0  0  0
   -1.2754   62.7374   86.0023 C   0  0  0  0  0  0  0  0  0  0  0  0
   -2.2578   61.7890   86.1411 O   0  0  0  0  0  0  0  0  0  0  0  0
   -2.4842   61.7090   87.0857 H   0  0  0  0  0  0  0  0  0  0  0  0
   -0.5697   63.7044   79.1859 C   0  0  0  0  0  0  0  0  0  0  0  0
   -0.7961   64.6676   76.8674 C   0  0  0  0  0  0  0  0  0  0  0  0
   -0.3407   63.4740   77.6915 C   0  0  0  0  0  0  0  0  0  0  0  0
 22 23  1  0  0  0
 23 21  1  0  0  0
 21  1  1  0  0  0
  1  2  2  0  0  0
  2  3  1  0  0  0
  3  4  1  0  0  0
  3  5  1  0  0  0
  5  6  1  0  0  0
  6  7  2  0  0  0
  6  8  1  0  0  0
  8  9  1  0  0  0
  9 13  1  0  0  0
 13 14  2  0  0  0
 14 15  1  0  0  0
 15 16  2  0  0  0
 16 17  1  0  0  0
 17 18  2  0  0  0
 18 19  1  0  0  0
  9 10  2  0  0  0
 10 11  1  0  0  0
 11  1  1  0  0  0
 11  5  2  0  0  0
 18 13  1  0  0  0
  8 12  1  0  0  0
 19 20  1  0  0  0
M  END
> <minimizedAffinity>
-8.47084

$$$$



 23 25  0  0  0  0  0  0  0  0999 V2000
   -0.6413   63.2266   80.6356 C   0  0  0  0  0  0  0  0  0  0  0  0
   -1.1995   62.4831   79.6608 N   0  0  0  0  0  0  0  0  0  0  0  0
   -1.9121   61.5437   80.3317 N   0  0  0  0  0  0  0  0  0  0  0  0
   -2.6598   60.5493   79.6009 C   0  0  0  0  0  0  0  0  0  0  0  0
   -1.8214   61.6692   81.6820 C   0  0  0  0  0  0  0  0  0  0  0  0
   -2.3927   60.9141   82.7350 C   0  0  0  0  0  0  0  0  0  0  0  0
   -3.1268   59.9418   82.6037 O   0  0  0  0  0  0  0  0  0  0  0  0
   -2.0183   61.4107   83.9616 N   0  0  0  0  0  0  0  0  0  0  0  0
   -1.1869   62.5106   84.1491 C   0  0  0  0  0  0  0  0  0  0  0  0
   -0.6644   63.2025   83.1715 N   0  0  0  0  0  0  0  0  0  0  0  0
   -1.0119   62.7426   81.9005 C   0  0  0  0  0  0  0  0  0  0  0  0
   -2.3845   60.9264   84.7731 H   0  0  0  0  0  0  0  0  0  0  0  0
   -0.8986   62.8908   85.5746 C   0  0  0  0  0  0  0  0  0  0  0  0
    0.2484   63.6631   85.8254 C   0  0  0  0  0  0  0  0  0  0  0  0
    0.5813   64.0546   87.1245 C   0  0  0  0  0  0  0  0  0  0  0  0
   -0.2278   63.6796   88.1932 C   0  0  0  0  0  0  0  0  0  0  0  0
   -1.3707   62.9134   87.9668 C   0  0  0  0  0  0  0  0  0  0  0  0
   -1.7041   62.5212   86.6656 C   0  0  0  0  0  0  0  0  0  0  0  0
   -2.8361   61.7673   86.4807 O   0  0  0  0  0  0  0  0  0  0  0  0
   -3.2563   61.6161   87.3470 H   0  0  0  0  0  0  0  0  0  0  0  0
    0.2375   64.3833   80.3083 C   0  0  0  0  0  0  0  0  0  0  0  0
    0.6565   66.3636   81.8107 C   0  0  0  0  0  0  0  0  0  0  0  0
   -0.3182   65.7008   80.8505 C   0  0  0  0  0  0  0  0  0  0  0  0
 22 23  1  0  0  0
 23 21  1  0  0  0
 21  1  1  0  0  0
  1  2  2  0  0  0
  2  3  1  0  0  0
  3  4  1  0  0  0
  3  5  1  0  0  0
  5  6  1  0  0  0
  6  7  2  0  0  0
  6  8  1  0  0  0
  8  9  1  0  0  0
  9 13  1  0  0  0
 13 14  2  0  0  0
 14 15  1  0  0  0
 15 16  2  0  0  0
 16 17  1  0  0  0
 17 18  2  0  0  0
 18 19  1  0  0  0
  9 10  2  0  0  0
 10 11  1  0  0  0
 11  1  1  0  0  0
 11  5  2  0  0  0
 18 13  1  0  0  0
  8 12  1  0  0  0
 19 20  1  0  0  0
M  END
> <minimizedAffinity>
-8.33316

$$$$



 23 25  0  0  0  0  0  0  0  0999 V2000
   -0.1449   63.7140   86.0156 C   0  0  0  0  0  0  0  0  0  0  0  0
   -0.9307   62.6654   85.7032 N   0  0  0  0  0  0  0  0  0  0  0  0
   -1.0358   62.7251   84.3519 N   0  0  0  0  0  0  0  0  0  0  0  0
   -1.8199   61.7403   83.6466 C   0  0  0  0  0  0  0  0  0  0  0  0
   -0.3504   63.7658   83.8093 C   0  0  0  0  0  0  0  0  0  0  0  0
   -0.1967   64.1899   82.4669 C   0  0  0  0  0  0  0  0  0  0  0  0
   -0.6908   63.6510   81.4836 O   0  0  0  0  0  0  0  0  0  0  0  0
    0.5951   65.3117   82.3885 N   0  0  0  0  0  0  0  0  0  0  0  0
    1.1718   65.9505   83.4820 C   0  0  0  0  0  0  0  0  0  0  0  0
    1.0255   65.5518   84.7177 N   0  0  0  0  0  0  0  0  0  0  0  0
    0.2298   64.4138   84.8574 C   0  0  0  0  0  0  0  0  0  0  0  0
    0.7568   65.6833   81.4597 H   0  0  0  0  0  0  0  0  0  0  0  0
    2.0033   67.1657   83.1795 C   0  0  0  0  0  0  0  0  0  0  0  0
    1.6626   67.9249   82.0470 C   0  0  0  0  0  0  0  0  0  0  0  0
    2.3895   69.0672   81.7024 C   0  0  0  0  0  0  0  0  0  0  0  0
    3.4685   69.4679   82.4849 C   0  0  0  0  0  0  0  0  0  0  0  0
    3.8238   68.7291   83.6130 C   0  0  0  0  0  0  0  0  0  0  0  0
    3.0959   67.5850   83.9583 C   0  0  0  0  0  0  0  0  0  0  0  0
    3.4744   66.8825   85.0750 O   0  0  0  0  0  0  0  0  0  0  0  0
    4.2437   67.3255   85.4774 H   0  0  0  0  0  0  0  0  0  0  0  0
    0.2158   64.0058   87.4306 C   0  0  0  0  0  0  0  0  0  0  0  0
    0.2307   62.2077   89.1972 C   0  0  0  0  0  0  0  0  0  0  0  0
   -0.6240   63.1947   88.4183 C   0  0  0  0  0  0  0  0  0  0  0  0
 22 23  1  0  0  0
 23 21  1  0  0  0
 21  1  1  0  0  0
  1  2  2  0  0  0
  2  3  1  0  0  0
  3  4  1  0  0  0
  3  5  1  0  0  0
  5  6  1  0  0  0
  6  7  2  0  0  0
  6  8  1  0  0  0
  8  9  1  0  0  0
  9 13  1  0  0  0
 13 14  2  0  0  0
 14 15  1  0  0  0
 15 16  2  0  0  0
 16 17  1  0  0  0
 17 18  2  0  0  0
 18 19  1  0  0  0
  9 10  2  0  0  0
 10 11  1  0  0  0
 11  1  1  0  0  0
 11  5  2  0  0  0
 18 13  1  0  0  0
  8 12  1  0  0  0
 19 20  1  0  0  0
M  END
> <minimizedAffinity>
-8.33033

$$$$



 23 25  0  0  0  0  0  0  0  0999 V2000
    0.4791   65.2451   81.2377 C   0  0  0  0  0  0  0  0  0  0  0  0
    0.5770   64.7336   79.9954 N   0  0  0  0  0  0  0  0  0  0  0  0
    0.1982   63.4392   80.1425 N   0  0  0  0  0  0  0  0  0  0  0  0
    0.1787   62.5603   78.9983 C   0  0  0  0  0  0  0  0  0  0  0  0
   -0.1307   63.1221   81.4226 C   0  0  0  0  0  0  0  0  0  0  0  0
   -0.5680   61.9080   82.0057 C   0  0  0  0  0  0  0  0  0  0  0  0
   -0.7418   60.8496   81.4130 O   0  0  0  0  0  0  0  0  0  0  0  0
   -0.7822   62.0549   83.3562 N   0  0  0  0  0  0  0  0  0  0  0  0
   -0.5950   63.2392   84.0623 C   0  0  0  0  0  0  0  0  0  0  0  0
   -0.1919   64.3557   83.5160 N   0  0  0  0  0  0  0  0  0  0  0  0
    0.0411   64.2652   82.1430 C   0  0  0  0  0  0  0  0  0  0  0  0
   -1.0980   61.2301   83.8532 H   0  0  0  0  0  0  0  0  0  0  0  0
   -0.8845   63.1873   85.5364 C   0  0  0  0  0  0  0  0  0  0  0  0
    0.0066   63.8463   86.4006 C   0  0  0  0  0  0  0  0  0  0  0  0
   -0.1970   63.8415   87.7827 C   0  0  0  0  0  0  0  0  0  0  0  0
   -1.2949   63.1775   88.3222 C   0  0  0  0  0  0  0  0  0  0  0  0
   -2.1915   62.5172   87.4829 C   0  0  0  0  0  0  0  0  0  0  0  0
   -1.9877   62.5219   86.0985 C   0  0  0  0  0  0  0  0  0  0  0  0
   -2.8905   61.8613   85.3033 O   0  0  0  0  0  0  0  0  0  0  0  0
   -3.5782   61.4677   85.8710 H   0  0  0  0  0  0  0  0  0  0  0  0
    0.8167   66.6700   81.5079 C   0  0  0  0  0  0  0  0  0  0  0  0
    2.1215   67.9423   83.2494 C   0  0  0  0  0  0  0  0  0  0  0  0
    2.1583   66.8179   82.2269 C   0  0  0  0  0  0  0  0  0  0  0  0
 22 23  1  0  0  0
 23 21  1  0  0  0
 21  1  1  0  0  0
  1  2  2  0  0  0
  2  3  1  0  0  0
  3  4  1  0  0  0
  3  5  1  0  0  0
  5  6  1  0  0  0
  6  7  2  0  0  0
  6  8  1  0  0  0
  8  9  1  0  0  0
  9 13  1  0  0  0
 13 14  2  0  0  0
 14 15  1  0  0  0
 15 16  2  0  0  0
 16 17  1  0  0  0
 17 18  2  0  0  0
 18 19  1  0  0  0
  9 10  2  0  0  0
 10 11  1  0  0  0
 11  1  1  0  0  0
 11  5  2  0  0  0
 18 13  1  0  0  0
  8 12  1  0  0  0
 19 20  1  0  0  0
M  END
> <minimizedAffinity>
-8.30922

$$$$
