


 24 26  0  0  0  0  0  0  0  0999 V2000
   -1.1606   62.7404   80.1051 C   0  0  0  0  0  0  0  0  0  0  0  0
   -1.5362   61.8340   79.1352 N   0  0  0  0  0  0  0  0  0  0  0  0
   -2.0961   60.8250   79.7787 C   0  0  0  0  0  0  0  0  0  0  0  0
   -2.6523   59.6064   79.1429 C   0  0  0  0  0  0  0  0  0  0  0  0
   -2.0958   61.0600   81.1344 N   0  0  0  0  0  0  0  0  0  0  0  0
   -2.5489   60.3625   82.2317 C   0  0  0  0  0  0  0  0  0  0  0  0
   -3.1177   59.1802   81.9446 O   0  0  0  0  0  0  0  0  0  0  0  0
   -2.4521   60.7879   83.4416 N   0  0  0  0  0  0  0  0  0  0  0  0
   -1.8348   62.0247   83.6057 C   0  0  0  0  0  0  0  0  0  0  0  0
   -1.3794   62.7547   82.6250 N   0  0  0  0  0  0  0  0  0  0  0  0
   -1.5037   62.2761   81.3593 C   0  0  0  0  0  0  0  0  0  0  0  0
   -3.3876   58.7715   82.7846 H   0  0  0  0  0  0  0  0  0  0  0  0
   -1.7502   62.5044   85.0184 C   0  0  0  0  0  0  0  0  0  0  0  0
   -2.7990   62.1852   85.8984 C   0  0  0  0  0  0  0  0  0  0  0  0
   -2.7708   62.6157   87.2271 C   0  0  0  0  0  0  0  0  0  0  0  0
   -1.6902   63.3595   87.6945 C   0  0  0  0  0  0  0  0  0  0  0  0
   -0.6405   63.6773   86.8332 C   0  0  0  0  0  0  0  0  0  0  0  0
   -0.6767   63.2700   85.4935 C   0  0  0  0  0  0  0  0  0  0  0  0
    0.4170   63.5377   84.7124 O   0  0  0  0  0  0  0  0  0  0  0  0
    0.7757   64.9229   84.7950 C   0  0  0  0  0  0  0  0  0  0  0  0
    0.8789   65.4638   83.3813 C   0  0  0  0  0  0  0  0  0  0  0  0
   -0.4760   64.0084   79.7348 C   0  0  0  0  0  0  0  0  0  0  0  0
   -0.3942   64.7346   77.3237 C   0  0  0  0  0  0  0  0  0  0  0  0
    0.2751   63.9046   78.4076 C   0  0  0  0  0  0  0  0  0  0  0  0
 23 24  1  0  0  0
 24 22  1  0  0  0
 22  1  1  0  0  0
  1  2  1  0  0  0
  2  3  2  0  0  0
  3  4  1  0  0  0
  3  5  1  0  0  0
  5  6  1  0  0  0
  6  7  1  0  0  0
  6  8  2  0  0  0
  8  9  1  0  0  0
  9 13  1  0  0  0
 13 14  2  0  0  0
 14 15  1  0  0  0
 15 16  2  0  0  0
 16 17  1  0  0  0
 17 18  2  0  0  0
 18 19  1  0  0  0
 19 20  1  0  0  0
 20 21  1  0  0  0
  9 10  2  0  0  0
 10 11  1  0  0  0
 11  1  2  0  0  0
 11  5  1  0  0  0
 18 13  1  0  0  0
  7 12  1  0  0  0
M  END
> <minimizedAffinity>
-8.82251

$$$$



 24 26  0  0  0  0  0  0  0  0999 V2000
   -0.9397   63.0580   80.4183 C   0  0  0  0  0  0  0  0  0  0  0  0
   -1.3765   62.2382   79.3983 N   0  0  0  0  0  0  0  0  0  0  0  0
   -2.0438   61.2580   79.9811 C   0  0  0  0  0  0  0  0  0  0  0  0
   -2.6976   60.1292   79.2761 C   0  0  0  0  0  0  0  0  0  0  0  0
   -2.0527   61.4278   81.3464 N   0  0  0  0  0  0  0  0  0  0  0  0
   -2.5949   60.7259   82.3996 C   0  0  0  0  0  0  0  0  0  0  0  0
   -3.2658   59.6181   82.0443 O   0  0  0  0  0  0  0  0  0  0  0  0
   -2.4864   61.0827   83.6305 N   0  0  0  0  0  0  0  0  0  0  0  0
   -1.7592   62.2460   83.8664 C   0  0  0  0  0  0  0  0  0  0  0  0
   -1.2144   62.9746   82.9313 N   0  0  0  0  0  0  0  0  0  0  0  0
   -1.3539   62.5701   81.6416 C   0  0  0  0  0  0  0  0  0  0  0  0
   -3.5925   59.1979   82.8581 H   0  0  0  0  0  0  0  0  0  0  0  0
   -1.6625   62.6485   85.3023 C   0  0  0  0  0  0  0  0  0  0  0  0
   -2.7396   62.3516   86.1554 C   0  0  0  0  0  0  0  0  0  0  0  0
   -2.7011   62.7127   87.5045 C   0  0  0  0  0  0  0  0  0  0  0  0
   -1.5826   63.3637   88.0185 C   0  0  0  0  0  0  0  0  0  0  0  0
   -0.5049   63.6583   87.1840 C   0  0  0  0  0  0  0  0  0  0  0  0
   -0.5497   63.3214   85.8252 C   0  0  0  0  0  0  0  0  0  0  0  0
    0.5678   63.5593   85.0686 O   0  0  0  0  0  0  0  0  0  0  0  0
    1.1007   64.8615   85.3416 C   0  0  0  0  0  0  0  0  0  0  0  0
    0.9552   65.6987   84.0847 C   0  0  0  0  0  0  0  0  0  0  0  0
   -0.1302   64.2710   80.1233 C   0  0  0  0  0  0  0  0  0  0  0  0
   -0.0800   66.7883   80.2157 C   0  0  0  0  0  0  0  0  0  0  0  0
   -0.6745   65.5223   80.8121 C   0  0  0  0  0  0  0  0  0  0  0  0
 23 24  1  0  0  0
 24 22  1  0  0  0
 22  1  1  0  0  0
  1  2  1  0  0  0
  2  3  2  0  0  0
  3  4  1  0  0  0
  3  5  1  0  0  0
  5  6  1  0  0  0
  6  7  1  0  0  0
  6  8  2  0  0  0
  8  9  1  0  0  0
  9 13  1  0  0  0
 13 14  2  0  0  0
 14 15  1  0  0  0
 15 16  2  0  0  0
 16 17  1  0  0  0
 17 18  2  0  0  0
 18 19  1  0  0  0
 19 20  1  0  0  0
 20 21  1  0  0  0
  9 10  2  0  0  0
 10 11  1  0  0  0
 11  1  2  0  0  0
 11  5  1  0  0  0
 18 13  1  0  0  0
  7 12  1  0  0  0
M  END
> <minimizedAffinity>
-8.66474

$$$$



 24 26  0  0  0  0  0  0  0  0999 V2000
    4.7876   67.0722   84.8744 C   0  0  0  0  0  0  0  0  0  0  0  0
    5.0351   68.2024   84.1229 N   0  0  0  0  0  0  0  0  0  0  0  0
    3.9365   68.4196   83.4217 C   0  0  0  0  0  0  0  0  0  0  0  0
    3.7386   69.5327   82.4624 C   0  0  0  0  0  0  0  0  0  0  0  0
    2.9882   67.4639   83.7055 N   0  0  0  0  0  0  0  0  0  0  0  0
    1.7011   67.2287   83.2766 C   0  0  0  0  0  0  0  0  0  0  0  0
    1.2451   68.1109   82.3726 O   0  0  0  0  0  0  0  0  0  0  0  0
    0.9728   66.2546   83.6950 N   0  0  0  0  0  0  0  0  0  0  0  0
    1.5654   65.4062   84.6260 C   0  0  0  0  0  0  0  0  0  0  0  0
    2.7757   65.5547   85.0900 N   0  0  0  0  0  0  0  0  0  0  0  0
    3.5144   66.5981   84.6295 C   0  0  0  0  0  0  0  0  0  0  0  0
    0.3409   67.8457   82.1324 H   0  0  0  0  0  0  0  0  0  0  0  0
    0.6931   64.2932   85.1091 C   0  0  0  0  0  0  0  0  0  0  0  0
    0.2463   64.3220   86.4417 C   0  0  0  0  0  0  0  0  0  0  0  0
   -0.5655   63.3019   86.9437 C   0  0  0  0  0  0  0  0  0  0  0  0
   -0.9491   62.2483   86.1179 C   0  0  0  0  0  0  0  0  0  0  0  0
   -0.5178   62.2114   84.7923 C   0  0  0  0  0  0  0  0  0  0  0  0
    0.3173   63.2183   84.2918 C   0  0  0  0  0  0  0  0  0  0  0  0
    0.6446   63.1775   82.9617 O   0  0  0  0  0  0  0  0  0  0  0  0
    0.1916   61.9569   82.3625 C   0  0  0  0  0  0  0  0  0  0  0  0
    1.4133   61.1581   81.9488 C   0  0  0  0  0  0  0  0  0  0  0  0
    5.8289   66.5224   85.7838 C   0  0  0  0  0  0  0  0  0  0  0  0
    8.1267   66.0811   84.8494 C   0  0  0  0  0  0  0  0  0  0  0  0
    6.7388   65.5088   85.0903 C   0  0  0  0  0  0  0  0  0  0  0  0
 23 24  1  0  0  0
 24 22  1  0  0  0
 22  1  1  0  0  0
  1  2  1  0  0  0
  2  3  2  0  0  0
  3  4  1  0  0  0
  3  5  1  0  0  0
  5  6  1  0  0  0
  6  7  1  0  0  0
  6  8  2  0  0  0
  8  9  1  0  0  0
  9 13  1  0  0  0
 13 14  2  0  0  0
 14 15  1  0  0  0
 15 16  2  0  0  0
 16 17  1  0  0  0
 17 18  2  0  0  0
 18 19  1  0  0  0
 19 20  1  0  0  0
 20 21  1  0  0  0
  9 10  2  0  0  0
 10 11  1  0  0  0
 11  1  2  0  0  0
 11  5  1  0  0  0
 18 13  1  0  0  0
  7 12  1  0  0  0
M  END
> <minimizedAffinity>
-8.62222

$$$$



 24 26  0  0  0  0  0  0  0  0999 V2000
   -0.8664   61.4438   79.5693 C   0  0  0  0  0  0  0  0  0  0  0  0
   -1.7540   60.4900   79.1158 N   0  0  0  0  0  0  0  0  0  0  0  0
   -2.4436   60.1035   80.1745 C   0  0  0  0  0  0  0  0  0  0  0  0
   -3.5178   59.0814   80.1707 C   0  0  0  0  0  0  0  0  0  0  0  0
   -2.0277   60.7858   81.2945 N   0  0  0  0  0  0  0  0  0  0  0  0
   -2.4025   60.7793   82.6194 C   0  0  0  0  0  0  0  0  0  0  0  0
   -3.3894   59.9178   82.9150 O   0  0  0  0  0  0  0  0  0  0  0  0
   -1.8708   61.5297   83.5185 N   0  0  0  0  0  0  0  0  0  0  0  0
   -0.8519   62.3731   83.0845 C   0  0  0  0  0  0  0  0  0  0  0  0
   -0.4352   62.4478   81.8505 N   0  0  0  0  0  0  0  0  0  0  0  0
   -1.0236   61.6440   80.9263 C   0  0  0  0  0  0  0  0  0  0  0  0
   -3.5642   59.9863   83.8691 H   0  0  0  0  0  0  0  0  0  0  0  0
   -0.2628   63.2467   84.1441 C   0  0  0  0  0  0  0  0  0  0  0  0
    0.2659   64.4936   83.7673 C   0  0  0  0  0  0  0  0  0  0  0  0
    0.8339   65.3442   84.7189 C   0  0  0  0  0  0  0  0  0  0  0  0
    0.8701   64.9641   86.0581 C   0  0  0  0  0  0  0  0  0  0  0  0
    0.3433   63.7326   86.4457 C   0  0  0  0  0  0  0  0  0  0  0  0
   -0.2039   62.8653   85.4915 C   0  0  0  0  0  0  0  0  0  0  0  0
   -0.7811   61.7048   85.9363 O   0  0  0  0  0  0  0  0  0  0  0  0
   -1.2959   61.8677   87.2640 C   0  0  0  0  0  0  0  0  0  0  0  0
   -2.7567   62.2624   87.1535 C   0  0  0  0  0  0  0  0  0  0  0  0
    0.0916   62.0944   78.6352 C   0  0  0  0  0  0  0  0  0  0  0  0
   -1.3134   63.5492   77.1327 C   0  0  0  0  0  0  0  0  0  0  0  0
   -0.4876   62.2765   77.2323 C   0  0  0  0  0  0  0  0  0  0  0  0
 23 24  1  0  0  0
 24 22  1  0  0  0
 22  1  1  0  0  0
  1  2  1  0  0  0
  2  3  2  0  0  0
  3  4  1  0  0  0
  3  5  1  0  0  0
  5  6  1  0  0  0
  6  7  1  0  0  0
  6  8  2  0  0  0
  8  9  1  0  0  0
  9 13  1  0  0  0
 13 14  2  0  0  0
 14 15  1  0  0  0
 15 16  2  0  0  0
 16 17  1  0  0  0
 17 18  2  0  0  0
 18 19  1  0  0  0
 19 20  1  0  0  0
 20 21  1  0  0  0
  9 10  2  0  0  0
 10 11  1  0  0  0
 11  1  2  0  0  0
 11  5  1  0  0  0
 18 13  1  0  0  0
  7 12  1  0  0  0
M  END
> <minimizedAffinity>
-8.61874

$$$$



 24 26  0  0  0  0  0  0  0  0999 V2000
   -0.8723   63.2087   85.9828 C   0  0  0  0  0  0  0  0  0  0  0  0
   -1.5695   62.1558   85.4273 N   0  0  0  0  0  0  0  0  0  0  0  0
   -1.3132   62.1942   84.1317 C   0  0  0  0  0  0  0  0  0  0  0  0
   -1.8529   61.2503   83.1235 C   0  0  0  0  0  0  0  0  0  0  0  0
   -0.4667   63.2388   83.8398 N   0  0  0  0  0  0  0  0  0  0  0  0
    0.1098   63.7155   82.6839 C   0  0  0  0  0  0  0  0  0  0  0  0
   -0.2148   63.0302   81.5755 O   0  0  0  0  0  0  0  0  0  0  0  0
    0.9012   64.7286   82.6425 N   0  0  0  0  0  0  0  0  0  0  0  0
    1.1515   65.3571   83.8592 C   0  0  0  0  0  0  0  0  0  0  0  0
    0.6521   64.9726   85.0014 N   0  0  0  0  0  0  0  0  0  0  0  0
   -0.1759   63.8951   85.0080 C   0  0  0  0  0  0  0  0  0  0  0  0
    0.2329   63.4556   80.8244 H   0  0  0  0  0  0  0  0  0  0  0  0
    2.0871   66.5200   83.7870 C   0  0  0  0  0  0  0  0  0  0  0  0
    1.6985   67.6476   83.0429 C   0  0  0  0  0  0  0  0  0  0  0  0
    2.5400   68.7578   82.9388 C   0  0  0  0  0  0  0  0  0  0  0  0
    3.7733   68.7588   83.5855 C   0  0  0  0  0  0  0  0  0  0  0  0
    4.1678   67.6489   84.3319 C   0  0  0  0  0  0  0  0  0  0  0  0
    3.3387   66.5232   84.4179 C   0  0  0  0  0  0  0  0  0  0  0  0
    3.7373   65.4940   85.2301 O   0  0  0  0  0  0  0  0  0  0  0  0
    5.1643   65.4718   85.3618 C   0  0  0  0  0  0  0  0  0  0  0  0
    5.4961   65.0361   86.7767 C   0  0  0  0  0  0  0  0  0  0  0  0
   -0.9434   63.4796   87.4440 C   0  0  0  0  0  0  0  0  0  0  0  0
    0.3122   62.1923   89.2087 C   0  0  0  0  0  0  0  0  0  0  0  0
    0.3994   63.2755   88.1453 C   0  0  0  0  0  0  0  0  0  0  0  0
 23 24  1  0  0  0
 24 22  1  0  0  0
 22  1  1  0  0  0
  1  2  1  0  0  0
  2  3  2  0  0  0
  3  4  1  0  0  0
  3  5  1  0  0  0
  5  6  1  0  0  0
  6  7  1  0  0  0
  6  8  2  0  0  0
  8  9  1  0  0  0
  9 13  1  0  0  0
 13 14  2  0  0  0
 14 15  1  0  0  0
 15 16  2  0  0  0
 16 17  1  0  0  0
 17 18  2  0  0  0
 18 19  1  0  0  0
 19 20  1  0  0  0
 20 21  1  0  0  0
  9 10  2  0  0  0
 10 11  1  0  0  0
 11  1  2  0  0  0
 11  5  1  0  0  0
 18 13  1  0  0  0
  7 12  1  0  0  0
M  END
> <minimizedAffinity>
-8.61053

$$$$



 24 26  0  0  0  0  0  0  0  0999 V2000
    0.7010   64.3667   85.8161 C   0  0  0  0  0  0  0  0  0  0  0  0
    0.5282   64.3298   87.1843 N   0  0  0  0  0  0  0  0  0  0  0  0
   -0.5186   63.5521   87.3970 C   0  0  0  0  0  0  0  0  0  0  0  0
   -1.0831   63.2204   88.7274 C   0  0  0  0  0  0  0  0  0  0  0  0
   -1.0199   63.0840   86.2043 N   0  0  0  0  0  0  0  0  0  0  0  0
   -2.0643   62.2559   85.8586 C   0  0  0  0  0  0  0  0  0  0  0  0
   -2.7750   61.7913   86.8991 O   0  0  0  0  0  0  0  0  0  0  0  0
   -2.3536   61.9345   84.6473 N   0  0  0  0  0  0  0  0  0  0  0  0
   -1.5449   62.4893   83.6594 C   0  0  0  0  0  0  0  0  0  0  0  0
   -0.5339   63.2794   83.8950 N   0  0  0  0  0  0  0  0  0  0  0  0
   -0.2542   63.5933   85.1872 C   0  0  0  0  0  0  0  0  0  0  0  0
   -3.4872   61.2329   86.5435 H   0  0  0  0  0  0  0  0  0  0  0  0
   -1.8907   62.0868   82.2624 C   0  0  0  0  0  0  0  0  0  0  0  0
   -3.0369   62.6435   81.6688 C   0  0  0  0  0  0  0  0  0  0  0  0
   -3.4070   62.2946   80.3677 C   0  0  0  0  0  0  0  0  0  0  0  0
   -2.6308   61.3951   79.6414 C   0  0  0  0  0  0  0  0  0  0  0  0
   -1.4879   60.8406   80.2166 C   0  0  0  0  0  0  0  0  0  0  0  0
   -1.1272   61.1675   81.5299 C   0  0  0  0  0  0  0  0  0  0  0  0
    0.0482   60.6589   82.0174 O   0  0  0  0  0  0  0  0  0  0  0  0
    1.1736   61.2615   81.3658 C   0  0  0  0  0  0  0  0  0  0  0  0
    2.4265   60.5557   81.8494 C   0  0  0  0  0  0  0  0  0  0  0  0
    1.7954   65.1725   85.2107 C   0  0  0  0  0  0  0  0  0  0  0  0
    1.4566   66.0997   82.8927 C   0  0  0  0  0  0  0  0  0  0  0  0
    1.2720   66.3453   84.3817 C   0  0  0  0  0  0  0  0  0  0  0  0
 23 24  1  0  0  0
 24 22  1  0  0  0
 22  1  1  0  0  0
  1  2  1  0  0  0
  2  3  2  0  0  0
  3  4  1  0  0  0
  3  5  1  0  0  0
  5  6  1  0  0  0
  6  7  1  0  0  0
  6  8  2  0  0  0
  8  9  1  0  0  0
  9 13  1  0  0  0
 13 14  2  0  0  0
 14 15  1  0  0  0
 15 16  2  0  0  0
 16 17  1  0  0  0
 17 18  2  0  0  0
 18 19  1  0  0  0
 19 20  1  0  0  0
 20 21  1  0  0  0
  9 10  2  0  0  0
 10 11  1  0  0  0
 11  1  2  0  0  0
 11  5  1  0  0  0
 18 13  1  0  0  0
  7 12  1  0  0  0
M  END
> <minimizedAffinity>
-8.50648

$$$$



 24 26  0  0  0  0  0  0  0  0999 V2000
   -1.7231   62.3596   85.4365 C   0  0  0  0  0  0  0  0  0  0  0  0
   -1.6611   61.8149   86.7025 N   0  0  0  0  0  0  0  0  0  0  0  0
   -0.6329   62.3941   87.2967 C   0  0  0  0  0  0  0  0  0  0  0  0
   -0.1767   62.1187   88.6804 C   0  0  0  0  0  0  0  0  0  0  0  0
   -0.0358   63.2995   86.4501 N   0  0  0  0  0  0  0  0  0  0  0  0
    1.0351   64.1579   86.5600 C   0  0  0  0  0  0  0  0  0  0  0  0
    1.6607   64.1190   87.7477 O   0  0  0  0  0  0  0  0  0  0  0  0
    1.4220   64.9455   85.6197 N   0  0  0  0  0  0  0  0  0  0  0  0
    0.6942   64.8841   84.4346 C   0  0  0  0  0  0  0  0  0  0  0  0
   -0.3346   64.1049   84.2434 N   0  0  0  0  0  0  0  0  0  0  0  0
   -0.7183   63.2900   85.2608 C   0  0  0  0  0  0  0  0  0  0  0  0
    2.4007   64.7488   87.7116 H   0  0  0  0  0  0  0  0  0  0  0  0
    1.1525   65.8209   83.3644 C   0  0  0  0  0  0  0  0  0  0  0  0
    1.7348   67.0419   83.7468 C   0  0  0  0  0  0  0  0  0  0  0  0
    2.1733   67.9550   82.7847 C   0  0  0  0  0  0  0  0  0  0  0  0
    2.0455   67.6541   81.4310 C   0  0  0  0  0  0  0  0  0  0  0  0
    1.4754   66.4435   81.0387 C   0  0  0  0  0  0  0  0  0  0  0  0
    1.0107   65.5362   81.9994 C   0  0  0  0  0  0  0  0  0  0  0  0
    0.5347   64.3277   81.5624 O   0  0  0  0  0  0  0  0  0  0  0  0
   -0.4966   64.5097   80.5838 C   0  0  0  0  0  0  0  0  0  0  0  0
   -0.9184   63.1387   80.0893 C   0  0  0  0  0  0  0  0  0  0  0  0
   -2.7672   61.9207   84.4716 C   0  0  0  0  0  0  0  0  0  0  0  0
   -3.0952   60.3222   82.5520 C   0  0  0  0  0  0  0  0  0  0  0  0
   -2.1742   61.3554   83.1811 C   0  0  0  0  0  0  0  0  0  0  0  0
 23 24  1  0  0  0
 24 22  1  0  0  0
 22  1  1  0  0  0
  1  2  1  0  0  0
  2  3  2  0  0  0
  3  4  1  0  0  0
  3  5  1  0  0  0
  5  6  1  0  0  0
  6  7  1  0  0  0
  6  8  2  0  0  0
  8  9  1  0  0  0
  9 13  1  0  0  0
 13 14  2  0  0  0
 14 15  1  0  0  0
 15 16  2  0  0  0
 16 17  1  0  0  0
 17 18  2  0  0  0
 18 19  1  0  0  0
 19 20  1  0  0  0
 20 21  1  0  0  0
  9 10  2  0  0  0
 10 11  1  0  0  0
 11  1  2  0  0  0
 11  5  1  0  0  0
 18 13  1  0  0  0
  7 12  1  0  0  0
M  END
> <minimizedAffinity>
-8.47188

$$$$



 24 26  0  0  0  0  0  0  0  0999 V2000
   -0.8461   62.6166   83.7488 C   0  0  0  0  0  0  0  0  0  0  0  0
   -1.4905   61.8658   84.7102 N   0  0  0  0  0  0  0  0  0  0  0  0
   -1.0894   62.3454   85.8742 C   0  0  0  0  0  0  0  0  0  0  0  0
   -1.5197   61.8437   87.2015 C   0  0  0  0  0  0  0  0  0  0  0  0
   -0.2096   63.3866   85.6877 N   0  0  0  0  0  0  0  0  0  0  0  0
    0.4831   64.2238   86.5334 C   0  0  0  0  0  0  0  0  0  0  0  0
    0.2784   63.9900   87.8399 O   0  0  0  0  0  0  0  0  0  0  0  0
    1.2643   65.1630   86.1309 N   0  0  0  0  0  0  0  0  0  0  0  0
    1.3971   65.2966   84.7516 C   0  0  0  0  0  0  0  0  0  0  0  0
    0.7777   64.5516   83.8780 N   0  0  0  0  0  0  0  0  0  0  0  0
   -0.0439   63.5725   84.3393 C   0  0  0  0  0  0  0  0  0  0  0  0
    0.8197   64.6236   88.3409 H   0  0  0  0  0  0  0  0  0  0  0  0
    2.2961   66.4054   84.3096 C   0  0  0  0  0  0  0  0  0  0  0  0
    1.7635   67.4119   83.4854 C   0  0  0  0  0  0  0  0  0  0  0  0
    2.5641   68.4664   83.0396 C   0  0  0  0  0  0  0  0  0  0  0  0
    3.9017   68.5335   83.4210 C   0  0  0  0  0  0  0  0  0  0  0  0
    4.4405   67.5447   84.2435 C   0  0  0  0  0  0  0  0  0  0  0  0
    3.6485   66.4717   84.6718 C   0  0  0  0  0  0  0  0  0  0  0  0
    4.2043   65.5729   85.5442 O   0  0  0  0  0  0  0  0  0  0  0  0
    5.2664   66.1784   86.2923 C   0  0  0  0  0  0  0  0  0  0  0  0
    5.3701   65.4577   87.6233 C   0  0  0  0  0  0  0  0  0  0  0  0
   -1.0546   62.3380   82.3022 C   0  0  0  0  0  0  0  0  0  0  0  0
    1.1715   61.1996   81.9916 C   0  0  0  0  0  0  0  0  0  0  0  0
   -0.3357   61.0712   81.8383 C   0  0  0  0  0  0  0  0  0  0  0  0
 23 24  1  0  0  0
 24 22  1  0  0  0
 22  1  1  0  0  0
  1  2  1  0  0  0
  2  3  2  0  0  0
  3  4  1  0  0  0
  3  5  1  0  0  0
  5  6  1  0  0  0
  6  7  1  0  0  0
  6  8  2  0  0  0
  8  9  1  0  0  0
  9 13  1  0  0  0
 13 14  2  0  0  0
 14 15  1  0  0  0
 15 16  2  0  0  0
 16 17  1  0  0  0
 17 18  2  0  0  0
 18 19  1  0  0  0
 19 20  1  0  0  0
 20 21  1  0  0  0
  9 10  2  0  0  0
 10 11  1  0  0  0
 11  1  2  0  0  0
 11  5  1  0  0  0
 18 13  1  0  0  0
  7 12  1  0  0  0
M  END
> <minimizedAffinity>
-8.36710

$$$$



 24 26  0  0  0  0  0  0  0  0999 V2000
    4.3167   66.9668   84.8592 C   0  0  0  0  0  0  0  0  0  0  0  0
    4.7068   68.1596   84.2863 N   0  0  0  0  0  0  0  0  0  0  0  0
    3.7573   68.4754   83.4234 C   0  0  0  0  0  0  0  0  0  0  0  0
    3.7478   69.6841   82.5646 C   0  0  0  0  0  0  0  0  0  0  0  0
    2.7655   67.5218   83.4297 N   0  0  0  0  0  0  0  0  0  0  0  0
    1.5772   67.3654   82.7520 C   0  0  0  0  0  0  0  0  0  0  0  0
    1.3018   68.3458   81.8765 O   0  0  0  0  0  0  0  0  0  0  0  0
    0.7767   66.3741   82.9279 N   0  0  0  0  0  0  0  0  0  0  0  0
    1.1816   65.4210   83.8582 C   0  0  0  0  0  0  0  0  0  0  0  0
    2.2873   65.4897   84.5472 N   0  0  0  0  0  0  0  0  0  0  0  0
    3.1062   66.5539   84.3392 C   0  0  0  0  0  0  0  0  0  0  0  0
    0.4550   68.1304   81.4498 H   0  0  0  0  0  0  0  0  0  0  0  0
    0.2266   64.2890   84.0569 C   0  0  0  0  0  0  0  0  0  0  0  0
   -0.4699   63.7958   82.9398 C   0  0  0  0  0  0  0  0  0  0  0  0
   -1.3788   62.7434   83.0738 C   0  0  0  0  0  0  0  0  0  0  0  0
   -1.5937   62.1647   84.3220 C   0  0  0  0  0  0  0  0  0  0  0  0
   -0.9044   62.6406   85.4369 C   0  0  0  0  0  0  0  0  0  0  0  0
   -0.0114   63.7125   85.3121 C   0  0  0  0  0  0  0  0  0  0  0  0
    0.7001   64.0867   86.4219 O   0  0  0  0  0  0  0  0  0  0  0  0
   -0.1184   64.0251   87.5969 C   0  0  0  0  0  0  0  0  0  0  0  0
    0.6333   63.2309   88.6486 C   0  0  0  0  0  0  0  0  0  0  0  0
    5.1690   66.3008   85.8808 C   0  0  0  0  0  0  0  0  0  0  0  0
    7.4864   65.8686   84.9918 C   0  0  0  0  0  0  0  0  0  0  0  0
    6.1178   65.2685   85.2719 C   0  0  0  0  0  0  0  0  0  0  0  0
 23 24  1  0  0  0
 24 22  1  0  0  0
 22  1  1  0  0  0
  1  2  1  0  0  0
  2  3  2  0  0  0
  3  4  1  0  0  0
  3  5  1  0  0  0
  5  6  1  0  0  0
  6  7  1  0  0  0
  6  8  2  0  0  0
  8  9  1  0  0  0
  9 13  1  0  0  0
 13 14  2  0  0  0
 14 15  1  0  0  0
 15 16  2  0  0  0
 16 17  1  0  0  0
 17 18  2  0  0  0
 18 19  1  0  0  0
 19 20  1  0  0  0
 20 21  1  0  0  0
  9 10  2  0  0  0
 10 11  1  0  0  0
 11  1  2  0  0  0
 11  5  1  0  0  0
 18 13  1  0  0  0
  7 12  1  0  0  0
M  END
> <minimizedAffinity>
-8.34986

$$$$
