


 37 41  0  0  0  0  0  0  0  0999 V2000
    0.9272   65.5443   81.8326 C   0  0  0  0  0  0  0  0  0  0  0  0
    0.2106   64.7579   81.0182 N   0  0  0  0  0  0  0  0  0  0  0  0
   -0.4640   63.7263   81.5557 C   0  0  0  0  0  0  0  0  0  0  0  0
   -0.4611   63.4776   82.9369 C   0  0  0  0  0  0  0  0  0  0  0  0
   -1.1844   62.4437   83.5871 C   0  0  0  0  0  0  0  0  0  0  0  0
   -1.1048   62.2749   84.9674 C   0  0  0  0  0  0  0  0  0  0  0  0
   -0.3090   63.1341   85.7116 C   0  0  0  0  0  0  0  0  0  0  0  0
    0.3932   64.1581   85.0698 C   0  0  0  0  0  0  0  0  0  0  0  0
    0.3263   64.3475   83.6941 C   0  0  0  0  0  0  0  0  0  0  0  0
    1.0144   65.3548   83.1522 N   0  0  0  0  0  0  0  0  0  0  0  0
    1.6022   66.5811   81.1922 N   0  0  0  0  0  0  0  0  0  0  0  0
    1.9845   66.2295   80.3268 H   0  0  0  0  0  0  0  0  0  0  0  0
    1.9654   70.7415   81.7509 C   0  0  0  0  0  0  0  0  0  0  0  0
    2.5760   69.8833   82.6631 C   0  0  0  0  0  0  0  0  0  0  0  0
    2.4608   68.4987   82.4914 C   0  0  0  0  0  0  0  0  0  0  0  0
    1.7281   67.9537   81.4294 C   0  0  0  0  0  0  0  0  0  0  0  0
    1.1201   68.8455   80.5269 C   0  0  0  0  0  0  0  0  0  0  0  0
    1.2284   70.2304   80.6839 C   0  0  0  0  0  0  0  0  0  0  0  0
    2.1012   72.4994   81.9451 S   0  0  0  0  0  0  0  0  0  0  0  0
    2.8186   72.7790   83.1711 O   0  0  0  0  0  0  0  0  0  0  0  0
    0.7894   73.0631   81.7046 O   0  0  0  0  0  0  0  0  0  0  0  0
    6.3461   75.1105   79.1818 C   0  0  0  0  0  0  0  0  0  0  0  0
    5.8179   74.2408   80.2293 N   0  0  0  0  0  0  0  0  0  0  0  0
    5.4222   72.9322   79.6701 C   0  0  0  0  0  0  0  0  0  0  0  0
    4.4059   72.1869   80.5546 C   0  0  0  0  0  0  0  0  0  0  0  0
    3.1120   72.9439   80.6432 N   0  0  0  0  0  0  0  0  0  0  0  0
    3.3023   74.4280   80.5122 C   0  0  0  0  0  0  0  0  0  0  0  0
    4.7041   74.8738   80.9660 C   0  0  0  0  0  0  0  0  0  0  0  0
   -1.2235   62.8942   80.7061 N   0  0  0  0  0  0  0  0  0  0  0  0
   -1.9335   62.4144   81.2520 H   0  0  0  0  0  0  0  0  0  0  0  0
   -0.4506   61.9484   79.9120 C   0  0  0  0  0  0  0  0  0  0  0  0
   -1.3184   61.4384   78.7836 C   0  0  0  0  0  0  0  0  0  0  0  0
   -1.0048   61.7539   77.4528 C   0  0  0  0  0  0  0  0  0  0  0  0
   -1.8077   61.2962   76.4073 C   0  0  0  0  0  0  0  0  0  0  0  0
   -2.9340   60.5225   76.6809 C   0  0  0  0  0  0  0  0  0  0  0  0
   -3.2602   60.2083   77.9992 C   0  0  0  0  0  0  0  0  0  0  0  0
   -2.4585   60.6655   79.0469 C   0  0  0  0  0  0  0  0  0  0  0  0
 22 23  1  0  0  0
 23 24  1  0  0  0
 24 25  1  0  0  0
 25 26  1  0  0  0
 26 19  1  0  0  0
 19 20  2  0  0  0
 19 21  2  0  0  0
 19 13  1  0  0  0
 13 14  1  0  0  0
 14 15  2  0  0  0
 15 16  1  0  0  0
 16 11  1  0  0  0
 11  1  1  0  0  0
  1  2  2  0  0  0
  2  3  1  0  0  0
  3 29  1  0  0  0
 29 31  1  0  0  0
 31 32  1  0  0  0
 32 33  2  0  0  0
 33 34  1  0  0  0
 34 35  2  0  0  0
 35 36  1  0  0  0
 36 37  2  0  0  0
  3  4  2  0  0  0
  4  5  1  0  0  0
  5  6  2  0  0  0
  6  7  1  0  0  0
  7  8  2  0  0  0
  8  9  1  0  0  0
  9 10  2  0  0  0
 16 17  2  0  0  0
 17 18  1  0  0  0
 26 27  1  0  0  0
 27 28  1  0  0  0
 28 23  1  0  0  0
 18 13  2  0  0  0
 10  1  1  0  0  0
 37 32  1  0  0  0
  9  4  1  0  0  0
 11 12  1  0  0  0
 29 30  1  0  0  0
M  END
> <minimizedAffinity>
-1.70657

$$$$



 37 41  0  0  0  0  0  0  0  0999 V2000
    1.1046   65.8548   81.6367 C   0  0  0  0  0  0  0  0  0  0  0  0
    0.3898   65.1043   80.7876 N   0  0  0  0  0  0  0  0  0  0  0  0
   -0.2934   64.0560   81.2800 C   0  0  0  0  0  0  0  0  0  0  0  0
   -0.3012   63.7538   82.6505 C   0  0  0  0  0  0  0  0  0  0  0  0
   -1.0340   62.6992   83.2553 C   0  0  0  0  0  0  0  0  0  0  0  0
   -0.9646   62.4765   84.6285 C   0  0  0  0  0  0  0  0  0  0  0  0
   -0.1699   63.3021   85.4108 C   0  0  0  0  0  0  0  0  0  0  0  0
    0.5416   64.3468   84.8140 C   0  0  0  0  0  0  0  0  0  0  0  0
    0.4851   64.5897   83.4462 C   0  0  0  0  0  0  0  0  0  0  0  0
    1.1818   65.6138   82.9484 N   0  0  0  0  0  0  0  0  0  0  0  0
    1.7890   66.9122   81.0416 N   0  0  0  0  0  0  0  0  0  0  0  0
    2.3475   66.5477   80.2840 H   0  0  0  0  0  0  0  0  0  0  0  0
    1.7372   71.0842   81.6288 C   0  0  0  0  0  0  0  0  0  0  0  0
    0.7908   70.5111   80.7817 C   0  0  0  0  0  0  0  0  0  0  0  0
    0.7984   69.1266   80.5750 C   0  0  0  0  0  0  0  0  0  0  0  0
    1.7504   68.3025   81.1887 C   0  0  0  0  0  0  0  0  0  0  0  0
    2.6951   68.9106   82.0355 C   0  0  0  0  0  0  0  0  0  0  0  0
    2.6984   70.2915   82.2536 C   0  0  0  0  0  0  0  0  0  0  0  0
    1.7445   72.8356   81.9097 S   0  0  0  0  0  0  0  0  0  0  0  0
    2.3744   73.1005   83.1860 O   0  0  0  0  0  0  0  0  0  0  0  0
    0.4129   73.3250   81.6203 O   0  0  0  0  0  0  0  0  0  0  0  0
    5.0178   76.4978   79.0207 C   0  0  0  0  0  0  0  0  0  0  0  0
    4.6415   75.7606   80.2238 N   0  0  0  0  0  0  0  0  0  0  0  0
    5.0454   74.3440   80.1150 C   0  0  0  0  0  0  0  0  0  0  0  0
    4.2485   73.4213   81.0554 C   0  0  0  0  0  0  0  0  0  0  0  0
    2.7922   73.4071   80.6890 N   0  0  0  0  0  0  0  0  0  0  0  0
    2.3412   74.6986   80.0688 C   0  0  0  0  0  0  0  0  0  0  0  0
    3.2007   75.8910   80.5258 C   0  0  0  0  0  0  0  0  0  0  0  0
   -1.0510   63.2614   80.3937 N   0  0  0  0  0  0  0  0  0  0  0  0
   -1.4172   62.4559   80.8933 H   0  0  0  0  0  0  0  0  0  0  0  0
   -0.3556   62.8496   79.1815 C   0  0  0  0  0  0  0  0  0  0  0  0
   -1.2059   61.8315   78.4557 C   0  0  0  0  0  0  0  0  0  0  0  0
   -1.0112   61.5955   77.0863 C   0  0  0  0  0  0  0  0  0  0  0  0
   -1.8000   60.6658   76.4076 C   0  0  0  0  0  0  0  0  0  0  0  0
   -2.7937   59.9656   77.0890 C   0  0  0  0  0  0  0  0  0  0  0  0
   -3.0017   60.1962   78.4479 C   0  0  0  0  0  0  0  0  0  0  0  0
   -2.2140   61.1263   79.1288 C   0  0  0  0  0  0  0  0  0  0  0  0
 22 23  1  0  0  0
 23 24  1  0  0  0
 24 25  1  0  0  0
 25 26  1  0  0  0
 26 19  1  0  0  0
 19 20  2  0  0  0
 19 21  2  0  0  0
 19 13  1  0  0  0
 13 14  1  0  0  0
 14 15  2  0  0  0
 15 16  1  0  0  0
 16 11  1  0  0  0
 11  1  1  0  0  0
  1  2  2  0  0  0
  2  3  1  0  0  0
  3 29  1  0  0  0
 29 31  1  0  0  0
 31 32  1  0  0  0
 32 33  2  0  0  0
 33 34  1  0  0  0
 34 35  2  0  0  0
 35 36  1  0  0  0
 36 37  2  0  0  0
  3  4  2  0  0  0
  4  5  1  0  0  0
  5  6  2  0  0  0
  6  7  1  0  0  0
  7  8  2  0  0  0
  8  9  1  0  0  0
  9 10  2  0  0  0
 16 17  2  0  0  0
 17 18  1  0  0  0
 26 27  1  0  0  0
 27 28  1  0  0  0
 28 23  1  0  0  0
 18 13  2  0  0  0
 10  1  1  0  0  0
 37 32  1  0  0  0
  9  4  1  0  0  0
 11 12  1  0  0  0
 29 30  1  0  0  0
M  END
> <minimizedAffinity>
-1.64608

$$$$



 37 41  0  0  0  0  0  0  0  0999 V2000
    0.8141   65.5738   81.6446 C   0  0  0  0  0  0  0  0  0  0  0  0
    0.0898   64.7241   80.9040 N   0  0  0  0  0  0  0  0  0  0  0  0
   -0.5171   63.6950   81.5211 C   0  0  0  0  0  0  0  0  0  0  0  0
   -0.4371   63.5120   82.9102 C   0  0  0  0  0  0  0  0  0  0  0  0
   -1.0870   62.4842   83.6424 C   0  0  0  0  0  0  0  0  0  0  0  0
   -0.9336   62.3838   85.0232 C   0  0  0  0  0  0  0  0  0  0  0  0
   -0.1365   63.3058   85.6865 C   0  0  0  0  0  0  0  0  0  0  0  0
    0.4931   64.3234   84.9642 C   0  0  0  0  0  0  0  0  0  0  0  0
    0.3518   64.4450   83.5864 C   0  0  0  0  0  0  0  0  0  0  0  0
    0.9729   65.4501   82.9653 N   0  0  0  0  0  0  0  0  0  0  0  0
    1.4162   66.6031   80.9245 N   0  0  0  0  0  0  0  0  0  0  0  0
    1.5514   66.2937   79.9734 H   0  0  0  0  0  0  0  0  0  0  0  0
    2.3292   70.6576   81.6183 C   0  0  0  0  0  0  0  0  0  0  0  0
    2.8084   69.6973   82.5071 C   0  0  0  0  0  0  0  0  0  0  0  0
    2.5099   68.3468   82.2905 C   0  0  0  0  0  0  0  0  0  0  0  0
    1.7228   67.9384   81.2063 C   0  0  0  0  0  0  0  0  0  0  0  0
    1.2506   68.9312   80.3284 C   0  0  0  0  0  0  0  0  0  0  0  0
    1.5424   70.2834   80.5303 C   0  0  0  0  0  0  0  0  0  0  0  0
    2.6980   72.3743   81.8696 S   0  0  0  0  0  0  0  0  0  0  0  0
    3.9924   72.6630   81.2890 O   0  0  0  0  0  0  0  0  0  0  0  0
    2.4201   72.6770   83.2580 O   0  0  0  0  0  0  0  0  0  0  0  0
   -1.2365   76.2281   80.4065 C   0  0  0  0  0  0  0  0  0  0  0  0
    0.1097   75.8350   80.8140 N   0  0  0  0  0  0  0  0  0  0  0  0
    0.8415   75.2309   79.6821 C   0  0  0  0  0  0  0  0  0  0  0  0
    2.0128   74.3400   80.1350 C   0  0  0  0  0  0  0  0  0  0  0  0
    1.5184   73.1553   80.9142 N   0  0  0  0  0  0  0  0  0  0  0  0
    0.2431   73.4432   81.6536 C   0  0  0  0  0  0  0  0  0  0  0  0
    0.0935   74.9382   81.9885 C   0  0  0  0  0  0  0  0  0  0  0  0
   -1.2841   62.7964   80.7496 N   0  0  0  0  0  0  0  0  0  0  0  0
   -1.9269   62.2957   81.3567 H   0  0  0  0  0  0  0  0  0  0  0  0
   -0.5146   61.8700   79.9297 C   0  0  0  0  0  0  0  0  0  0  0  0
   -1.4158   61.3119   78.8513 C   0  0  0  0  0  0  0  0  0  0  0  0
   -2.4888   60.4740   79.1908 C   0  0  0  0  0  0  0  0  0  0  0  0
   -3.3176   59.9461   78.2000 C   0  0  0  0  0  0  0  0  0  0  0  0
   -3.0801   60.2465   76.8600 C   0  0  0  0  0  0  0  0  0  0  0  0
   -2.0130   61.0719   76.5094 C   0  0  0  0  0  0  0  0  0  0  0  0
   -1.1823   61.6008   77.4991 C   0  0  0  0  0  0  0  0  0  0  0  0
 22 23  1  0  0  0
 23 24  1  0  0  0
 24 25  1  0  0  0
 25 26  1  0  0  0
 26 19  1  0  0  0
 19 20  2  0  0  0
 19 21  2  0  0  0
 19 13  1  0  0  0
 13 14  1  0  0  0
 14 15  2  0  0  0
 15 16  1  0  0  0
 16 11  1  0  0  0
 11  1  1  0  0  0
  1  2  2  0  0  0
  2  3  1  0  0  0
  3 29  1  0  0  0
 29 31  1  0  0  0
 31 32  1  0  0  0
 32 33  2  0  0  0
 33 34  1  0  0  0
 34 35  2  0  0  0
 35 36  1  0  0  0
 36 37  2  0  0  0
  3  4  2  0  0  0
  4  5  1  0  0  0
  5  6  2  0  0  0
  6  7  1  0  0  0
  7  8  2  0  0  0
  8  9  1  0  0  0
  9 10  2  0  0  0
 16 17  2  0  0  0
 17 18  1  0  0  0
 26 27  1  0  0  0
 27 28  1  0  0  0
 28 23  1  0  0  0
 18 13  2  0  0  0
 10  1  1  0  0  0
 37 32  1  0  0  0
  9  4  1  0  0  0
 11 12  1  0  0  0
 29 30  1  0  0  0
M  END
> <minimizedAffinity>
-1.63947

$$$$



 37 41  0  0  0  0  0  0  0  0999 V2000
    1.9571   69.3005   80.9452 C   0  0  0  0  0  0  0  0  0  0  0  0
    3.0427   70.0795   81.0440 N   0  0  0  0  0  0  0  0  0  0  0  0
    2.8701   71.4114   81.1107 C   0  0  0  0  0  0  0  0  0  0  0  0
    1.5936   71.9945   81.1123 C   0  0  0  0  0  0  0  0  0  0  0  0
    1.3248   73.3834   81.2299 C   0  0  0  0  0  0  0  0  0  0  0  0
    0.0170   73.8624   81.2099 C   0  0  0  0  0  0  0  0  0  0  0  0
   -1.0328   72.9648   81.0767 C   0  0  0  0  0  0  0  0  0  0  0  0
   -0.7654   71.5969   80.9725 C   0  0  0  0  0  0  0  0  0  0  0  0
    0.5314   71.0959   80.9932 C   0  0  0  0  0  0  0  0  0  0  0  0
    0.7095   69.7761   80.9017 N   0  0  0  0  0  0  0  0  0  0  0  0
    2.2271   67.9358   80.8706 N   0  0  0  0  0  0  0  0  0  0  0  0
    3.2266   67.8030   80.9153 H   0  0  0  0  0  0  0  0  0  0  0  0
   -0.0721   64.4084   81.0280 C   0  0  0  0  0  0  0  0  0  0  0  0
   -0.0062   65.1170   79.8300 C   0  0  0  0  0  0  0  0  0  0  0  0
    0.7513   66.2923   79.7644 C   0  0  0  0  0  0  0  0  0  0  0  0
    1.4334   66.7843   80.8846 C   0  0  0  0  0  0  0  0  0  0  0  0
    1.3450   66.0489   82.0808 C   0  0  0  0  0  0  0  0  0  0  0  0
    0.5945   64.8722   82.1609 C   0  0  0  0  0  0  0  0  0  0  0  0
   -1.0219   62.9142   81.1343 S   0  0  0  0  0  0  0  0  0  0  0  0
   -2.2578   63.1960   81.8337 O   0  0  0  0  0  0  0  0  0  0  0  0
   -0.1308   61.8674   81.5889 O   0  0  0  0  0  0  0  0  0  0  0  0
   -2.0121   59.8898   76.4072 C   0  0  0  0  0  0  0  0  0  0  0  0
   -2.2689   60.2463   77.7999 N   0  0  0  0  0  0  0  0  0  0  0  0
   -2.9983   61.5280   77.8840 C   0  0  0  0  0  0  0  0  0  0  0  0
   -2.8426   62.2156   79.2528 C   0  0  0  0  0  0  0  0  0  0  0  0
   -1.4127   62.6009   79.5023 N   0  0  0  0  0  0  0  0  0  0  0  0
   -0.4405   61.6821   78.8192 C   0  0  0  0  0  0  0  0  0  0  0  0
   -1.0281   60.2760   78.6022 C   0  0  0  0  0  0  0  0  0  0  0  0
    4.0074   72.2397   81.2175 N   0  0  0  0  0  0  0  0  0  0  0  0
    3.7113   73.2066   81.3172 H   0  0  0  0  0  0  0  0  0  0  0  0
    4.9783   72.1016   80.1400 C   0  0  0  0  0  0  0  0  0  0  0  0
    5.6677   73.4315   79.9339 C   0  0  0  0  0  0  0  0  0  0  0  0
    5.5684   74.4374   80.9071 C   0  0  0  0  0  0  0  0  0  0  0  0
    6.1924   75.6712   80.7183 C   0  0  0  0  0  0  0  0  0  0  0  0
    6.9182   75.9139   79.5538 C   0  0  0  0  0  0  0  0  0  0  0  0
    7.0184   74.9253   78.5761 C   0  0  0  0  0  0  0  0  0  0  0  0
    6.3945   73.6903   78.7628 C   0  0  0  0  0  0  0  0  0  0  0  0
 22 23  1  0  0  0
 23 24  1  0  0  0
 24 25  1  0  0  0
 25 26  1  0  0  0
 26 19  1  0  0  0
 19 20  2  0  0  0
 19 21  2  0  0  0
 19 13  1  0  0  0
 13 14  1  0  0  0
 14 15  2  0  0  0
 15 16  1  0  0  0
 16 11  1  0  0  0
 11  1  1  0  0  0
  1  2  2  0  0  0
  2  3  1  0  0  0
  3 29  1  0  0  0
 29 31  1  0  0  0
 31 32  1  0  0  0
 32 33  2  0  0  0
 33 34  1  0  0  0
 34 35  2  0  0  0
 35 36  1  0  0  0
 36 37  2  0  0  0
  3  4  2  0  0  0
  4  5  1  0  0  0
  5  6  2  0  0  0
  6  7  1  0  0  0
  7  8  2  0  0  0
  8  9  1  0  0  0
  9 10  2  0  0  0
 16 17  2  0  0  0
 17 18  1  0  0  0
 26 27  1  0  0  0
 27 28  1  0  0  0
 28 23  1  0  0  0
 18 13  2  0  0  0
 10  1  1  0  0  0
 37 32  1  0  0  0
  9  4  1  0  0  0
 11 12  1  0  0  0
 29 30  1  0  0  0
M  END
> <minimizedAffinity>
-1.62795

$$$$



 37 41  0  0  0  0  0  0  0  0999 V2000
   -0.3440   64.1602   79.4151 C   0  0  0  0  0  0  0  0  0  0  0  0
   -0.4569   63.9259   80.7295 N   0  0  0  0  0  0  0  0  0  0  0  0
   -1.1168   62.8243   81.1284 C   0  0  0  0  0  0  0  0  0  0  0  0
   -1.6543   61.9089   80.2105 C   0  0  0  0  0  0  0  0  0  0  0  0
   -2.3189   60.7008   80.5480 C   0  0  0  0  0  0  0  0  0  0  0  0
   -2.8270   59.8638   79.5575 C   0  0  0  0  0  0  0  0  0  0  0  0
   -2.6754   60.2192   78.2248 C   0  0  0  0  0  0  0  0  0  0  0  0
   -2.0107   61.4037   77.8952 C   0  0  0  0  0  0  0  0  0  0  0  0
   -1.4927   62.2528   78.8667 C   0  0  0  0  0  0  0  0  0  0  0  0
   -0.8588   63.3609   78.4766 N   0  0  0  0  0  0  0  0  0  0  0  0
    0.3443   65.3271   79.0908 N   0  0  0  0  0  0  0  0  0  0  0  0
    0.5711   65.3038   78.1075 H   0  0  0  0  0  0  0  0  0  0  0  0
    1.1354   68.9562   81.0801 C   0  0  0  0  0  0  0  0  0  0  0  0
    2.1297   67.9810   81.0365 C   0  0  0  0  0  0  0  0  0  0  0  0
    1.8793   66.7693   80.3816 C   0  0  0  0  0  0  0  0  0  0  0  0
    0.6412   66.5063   79.7819 C   0  0  0  0  0  0  0  0  0  0  0  0
   -0.3439   67.5087   79.8456 C   0  0  0  0  0  0  0  0  0  0  0  0
   -0.1077   68.7247   80.4937 C   0  0  0  0  0  0  0  0  0  0  0  0
    1.4308   70.5011   81.9001 S   0  0  0  0  0  0  0  0  0  0  0  0
    2.2247   70.2554   83.0855 O   0  0  0  0  0  0  0  0  0  0  0  0
    0.1628   71.1952   81.9835 O   0  0  0  0  0  0  0  0  0  0  0  0
    4.8573   74.5743   79.8653 C   0  0  0  0  0  0  0  0  0  0  0  0
    4.5097   73.5248   80.8194 N   0  0  0  0  0  0  0  0  0  0  0  0
    4.7044   72.1893   80.2192 C   0  0  0  0  0  0  0  0  0  0  0  0
    3.8903   71.0911   80.9277 C   0  0  0  0  0  0  0  0  0  0  0  0
    2.4157   71.3363   80.7836 N   0  0  0  0  0  0  0  0  0  0  0  0
    2.0829   72.7963   80.6663 C   0  0  0  0  0  0  0  0  0  0  0  0
    3.1385   73.6867   81.3463 C   0  0  0  0  0  0  0  0  0  0  0  0
   -1.2386   62.5679   82.5106 N   0  0  0  0  0  0  0  0  0  0  0  0
   -2.0733   63.0259   82.8654 H   0  0  0  0  0  0  0  0  0  0  0  0
   -0.0729   62.9184   83.3112 C   0  0  0  0  0  0  0  0  0  0  0  0
   -0.4681   62.9184   84.7707 C   0  0  0  0  0  0  0  0  0  0  0  0
    0.3295   63.5769   85.7188 C   0  0  0  0  0  0  0  0  0  0  0  0
   -0.0230   63.5713   87.0690 C   0  0  0  0  0  0  0  0  0  0  0  0
   -1.1734   62.9044   87.4860 C   0  0  0  0  0  0  0  0  0  0  0  0
   -1.9703   62.2404   86.5548 C   0  0  0  0  0  0  0  0  0  0  0  0
   -1.6192   62.2444   85.2034 C   0  0  0  0  0  0  0  0  0  0  0  0
 22 23  1  0  0  0
 23 24  1  0  0  0
 24 25  1  0  0  0
 25 26  1  0  0  0
 26 19  1  0  0  0
 19 20  2  0  0  0
 19 21  2  0  0  0
 19 13  1  0  0  0
 13 14  1  0  0  0
 14 15  2  0  0  0
 15 16  1  0  0  0
 16 11  1  0  0  0
 11  1  1  0  0  0
  1  2  2  0  0  0
  2  3  1  0  0  0
  3 29  1  0  0  0
 29 31  1  0  0  0
 31 32  1  0  0  0
 32 33  2  0  0  0
 33 34  1  0  0  0
 34 35  2  0  0  0
 35 36  1  0  0  0
 36 37  2  0  0  0
  3  4  2  0  0  0
  4  5  1  0  0  0
  5  6  2  0  0  0
  6  7  1  0  0  0
  7  8  2  0  0  0
  8  9  1  0  0  0
  9 10  2  0  0  0
 16 17  2  0  0  0
 17 18  1  0  0  0
 26 27  1  0  0  0
 27 28  1  0  0  0
 28 23  1  0  0  0
 18 13  2  0  0  0
 10  1  1  0  0  0
 37 32  1  0  0  0
  9  4  1  0  0  0
 11 12  1  0  0  0
 29 30  1  0  0  0
M  END
> <minimizedAffinity>
-1.60503

$$$$



 37 41  0  0  0  0  0  0  0  0999 V2000
    2.1755   68.9862   81.9981 C   0  0  0  0  0  0  0  0  0  0  0  0
    1.4106   67.9012   81.8168 N   0  0  0  0  0  0  0  0  0  0  0  0
    1.6616   66.8100   82.5614 C   0  0  0  0  0  0  0  0  0  0  0  0
    2.6722   66.7932   83.5351 C   0  0  0  0  0  0  0  0  0  0  0  0
    2.9672   65.7027   84.3945 C   0  0  0  0  0  0  0  0  0  0  0  0
    4.0020   65.7843   85.3232 C   0  0  0  0  0  0  0  0  0  0  0  0
    4.7484   66.9510   85.4072 C   0  0  0  0  0  0  0  0  0  0  0  0
    4.4483   68.0271   84.5673 C   0  0  0  0  0  0  0  0  0  0  0  0
    3.4183   67.9694   83.6352 C   0  0  0  0  0  0  0  0  0  0  0  0
    3.1813   69.0412   82.8756 N   0  0  0  0  0  0  0  0  0  0  0  0
    1.8540   70.0662   81.1791 N   0  0  0  0  0  0  0  0  0  0  0  0
    1.2937   69.7305   80.4096 H   0  0  0  0  0  0  0  0  0  0  0  0
    2.2222   74.2552   81.4449 C   0  0  0  0  0  0  0  0  0  0  0  0
    3.3504   73.4977   81.1365 C   0  0  0  0  0  0  0  0  0  0  0  0
    3.2432   72.1048   81.0482 C   0  0  0  0  0  0  0  0  0  0  0  0
    2.0268   71.4505   81.2808 C   0  0  0  0  0  0  0  0  0  0  0  0
    0.9063   72.2417   81.5935 C   0  0  0  0  0  0  0  0  0  0  0  0
    0.9974   73.6339   81.6829 C   0  0  0  0  0  0  0  0  0  0  0  0
    2.3325   76.0219   81.5581 S   0  0  0  0  0  0  0  0  0  0  0  0
    1.3547   76.6082   80.6658 O   0  0  0  0  0  0  0  0  0  0  0  0
    3.7337   76.3742   81.4626 O   0  0  0  0  0  0  0  0  0  0  0  0
    2.0902   78.5680   86.6503 C   0  0  0  0  0  0  0  0  0  0  0  0
    1.9969   78.5645   85.1930 N   0  0  0  0  0  0  0  0  0  0  0  0
    0.7376   77.9304   84.7527 C   0  0  0  0  0  0  0  0  0  0  0  0
    0.8005   77.4212   83.3010 C   0  0  0  0  0  0  0  0  0  0  0  0
    1.8204   76.3283   83.1575 N   0  0  0  0  0  0  0  0  0  0  0  0
    2.9538   76.4657   84.1334 C   0  0  0  0  0  0  0  0  0  0  0  0
    3.1726   77.9274   84.5638 C   0  0  0  0  0  0  0  0  0  0  0  0
    0.8597   65.6634   82.3792 N   0  0  0  0  0  0  0  0  0  0  0  0
    1.4548   64.8414   82.3276 H   0  0  0  0  0  0  0  0  0  0  0  0
   -0.0512   65.7182   81.2434 C   0  0  0  0  0  0  0  0  0  0  0  0
   -0.4563   64.3081   80.8773 C   0  0  0  0  0  0  0  0  0  0  0  0
   -0.4928   63.9101   79.5322 C   0  0  0  0  0  0  0  0  0  0  0  0
   -0.8768   62.6139   79.1863 C   0  0  0  0  0  0  0  0  0  0  0  0
   -1.2321   61.7038   80.1801 C   0  0  0  0  0  0  0  0  0  0  0  0
   -1.2068   62.0892   81.5194 C   0  0  0  0  0  0  0  0  0  0  0  0
   -0.8233   63.3858   81.8677 C   0  0  0  0  0  0  0  0  0  0  0  0
 22 23  1  0  0  0
 23 24  1  0  0  0
 24 25  1  0  0  0
 25 26  1  0  0  0
 26 19  1  0  0  0
 19 20  2  0  0  0
 19 21  2  0  0  0
 19 13  1  0  0  0
 13 14  1  0  0  0
 14 15  2  0  0  0
 15 16  1  0  0  0
 16 11  1  0  0  0
 11  1  1  0  0  0
  1  2  2  0  0  0
  2  3  1  0  0  0
  3 29  1  0  0  0
 29 31  1  0  0  0
 31 32  1  0  0  0
 32 33  2  0  0  0
 33 34  1  0  0  0
 34 35  2  0  0  0
 35 36  1  0  0  0
 36 37  2  0  0  0
  3  4  2  0  0  0
  4  5  1  0  0  0
  5  6  2  0  0  0
  6  7  1  0  0  0
  7  8  2  0  0  0
  8  9  1  0  0  0
  9 10  2  0  0  0
 16 17  2  0  0  0
 17 18  1  0  0  0
 26 27  1  0  0  0
 27 28  1  0  0  0
 28 23  1  0  0  0
 18 13  2  0  0  0
 10  1  1  0  0  0
 37 32  1  0  0  0
  9  4  1  0  0  0
 11 12  1  0  0  0
 29 30  1  0  0  0
M  END
> <minimizedAffinity>
-1.54172

$$$$



 37 41  0  0  0  0  0  0  0  0999 V2000
    1.2797   64.7197   84.7049 C   0  0  0  0  0  0  0  0  0  0  0  0
    0.7074   64.0617   83.6876 N   0  0  0  0  0  0  0  0  0  0  0  0
   -0.3042   63.2186   83.9596 C   0  0  0  0  0  0  0  0  0  0  0  0
   -0.7898   63.0396   85.2641 C   0  0  0  0  0  0  0  0  0  0  0  0
   -1.8826   62.2097   85.6274 C   0  0  0  0  0  0  0  0  0  0  0  0
   -2.2800   62.0928   86.9572 C   0  0  0  0  0  0  0  0  0  0  0  0
   -1.5970   62.8022   87.9348 C   0  0  0  0  0  0  0  0  0  0  0  0
   -0.5285   63.6273   87.5725 C   0  0  0  0  0  0  0  0  0  0  0  0
   -0.1164   63.7619   86.2515 C   0  0  0  0  0  0  0  0  0  0  0  0
    0.9040   64.5782   85.9791 N   0  0  0  0  0  0  0  0  0  0  0  0
    2.3253   65.5628   84.3356 N   0  0  0  0  0  0  0  0  0  0  0  0
    3.1883   65.1799   84.6923 H   0  0  0  0  0  0  0  0  0  0  0  0
    2.6656   69.0301   81.9658 C   0  0  0  0  0  0  0  0  0  0  0  0
    1.7890   68.0236   81.5654 C   0  0  0  0  0  0  0  0  0  0  0  0
    1.6684   66.8648   82.3416 C   0  0  0  0  0  0  0  0  0  0  0  0
    2.4245   66.6852   83.5069 C   0  0  0  0  0  0  0  0  0  0  0  0
    3.3035   67.7173   83.8834 C   0  0  0  0  0  0  0  0  0  0  0  0
    3.4329   68.8812   83.1199 C   0  0  0  0  0  0  0  0  0  0  0  0
    2.8322   70.5092   81.0011 S   0  0  0  0  0  0  0  0  0  0  0  0
    2.3405   70.2517   79.6640 O   0  0  0  0  0  0  0  0  0  0  0  0
    4.1707   71.0175   81.2174 O   0  0  0  0  0  0  0  0  0  0  0  0
    0.0702   75.3710   82.0997 C   0  0  0  0  0  0  0  0  0  0  0  0
    0.4871   74.2832   81.2190 N   0  0  0  0  0  0  0  0  0  0  0  0
   -0.2757   73.0530   81.5129 C   0  0  0  0  0  0  0  0  0  0  0  0
    0.4377   71.7773   81.0286 C   0  0  0  0  0  0  0  0  0  0  0  0
    1.7352   71.5763   81.7575 N   0  0  0  0  0  0  0  0  0  0  0  0
    2.3607   72.8719   82.1890 C   0  0  0  0  0  0  0  0  0  0  0  0
    1.9442   74.0451   81.2837 C   0  0  0  0  0  0  0  0  0  0  0  0
   -0.9147   62.5232   82.8944 N   0  0  0  0  0  0  0  0  0  0  0  0
   -0.3220   61.7461   82.6165 H   0  0  0  0  0  0  0  0  0  0  0  0
   -1.2723   63.3420   81.7436 C   0  0  0  0  0  0  0  0  0  0  0  0
   -1.4973   62.4362   80.5540 C   0  0  0  0  0  0  0  0  0  0  0  0
   -2.3932   61.3602   80.6445 C   0  0  0  0  0  0  0  0  0  0  0  0
   -2.5971   60.5133   79.5543 C   0  0  0  0  0  0  0  0  0  0  0  0
   -1.9049   60.7303   78.3644 C   0  0  0  0  0  0  0  0  0  0  0  0
   -1.0067   61.7916   78.2642 C   0  0  0  0  0  0  0  0  0  0  0  0
   -0.8010   62.6399   79.3539 C   0  0  0  0  0  0  0  0  0  0  0  0
 22 23  1  0  0  0
 23 24  1  0  0  0
 24 25  1  0  0  0
 25 26  1  0  0  0
 26 19  1  0  0  0
 19 20  2  0  0  0
 19 21  2  0  0  0
 19 13  1  0  0  0
 13 14  1  0  0  0
 14 15  2  0  0  0
 15 16  1  0  0  0
 16 11  1  0  0  0
 11  1  1  0  0  0
  1  2  2  0  0  0
  2  3  1  0  0  0
  3 29  1  0  0  0
 29 31  1  0  0  0
 31 32  1  0  0  0
 32 33  2  0  0  0
 33 34  1  0  0  0
 34 35  2  0  0  0
 35 36  1  0  0  0
 36 37  2  0  0  0
  3  4  2  0  0  0
  4  5  1  0  0  0
  5  6  2  0  0  0
  6  7  1  0  0  0
  7  8  2  0  0  0
  8  9  1  0  0  0
  9 10  2  0  0  0
 16 17  2  0  0  0
 17 18  1  0  0  0
 26 27  1  0  0  0
 27 28  1  0  0  0
 28 23  1  0  0  0
 18 13  2  0  0  0
 10  1  1  0  0  0
 37 32  1  0  0  0
  9  4  1  0  0  0
 11 12  1  0  0  0
 29 30  1  0  0  0
M  END
> <minimizedAffinity>
-1.54152

$$$$



 37 41  0  0  0  0  0  0  0  0999 V2000
    0.6299   69.0885   80.8895 C   0  0  0  0  0  0  0  0  0  0  0  0
    1.5164   68.5998   81.7672 N   0  0  0  0  0  0  0  0  0  0  0  0
    2.3421   69.4602   82.3885 C   0  0  0  0  0  0  0  0  0  0  0  0
    2.2750   70.8442   82.1659 C   0  0  0  0  0  0  0  0  0  0  0  0
    3.0736   71.8209   82.8165 C   0  0  0  0  0  0  0  0  0  0  0  0
    2.9354   73.1736   82.5148 C   0  0  0  0  0  0  0  0  0  0  0  0
    2.0004   73.5658   81.5675 C   0  0  0  0  0  0  0  0  0  0  0  0
    1.2076   72.6028   80.9368 C   0  0  0  0  0  0  0  0  0  0  0  0
    1.3260   71.2477   81.2243 C   0  0  0  0  0  0  0  0  0  0  0  0
    0.5260   70.3866   80.5914 N   0  0  0  0  0  0  0  0  0  0  0  0
   -0.1777   68.1280   80.2847 N   0  0  0  0  0  0  0  0  0  0  0  0
   -0.8227   68.5948   79.6643 H   0  0  0  0  0  0  0  0  0  0  0  0
   -0.1921   63.9157   80.3824 C   0  0  0  0  0  0  0  0  0  0  0  0
    0.4510   64.5631   79.3293 C   0  0  0  0  0  0  0  0  0  0  0  0
    0.4607   65.9622   79.2826 C   0  0  0  0  0  0  0  0  0  0  0  0
   -0.1787   66.7295   80.2646 C   0  0  0  0  0  0  0  0  0  0  0  0
   -0.8224   66.0473   81.3133 C   0  0  0  0  0  0  0  0  0  0  0  0
   -0.8385   64.6508   81.3747 C   0  0  0  0  0  0  0  0  0  0  0  0
   -0.2140   62.1440   80.4655 S   0  0  0  0  0  0  0  0  0  0  0  0
   -0.4489   61.7443   81.8370 O   0  0  0  0  0  0  0  0  0  0  0  0
    0.9413   61.6632   79.7370 O   0  0  0  0  0  0  0  0  0  0  0  0
   -3.3829   59.7024   76.4072 C   0  0  0  0  0  0  0  0  0  0  0  0
   -2.4640   59.6585   77.5414 N   0  0  0  0  0  0  0  0  0  0  0  0
   -3.1783   59.9442   78.8024 C   0  0  0  0  0  0  0  0  0  0  0  0
   -2.2410   60.4293   79.9235 C   0  0  0  0  0  0  0  0  0  0  0  0
   -1.6081   61.7433   79.5654 N   0  0  0  0  0  0  0  0  0  0  0  0
   -1.4341   61.9144   78.0834 C   0  0  0  0  0  0  0  0  0  0  0  0
   -1.3106   60.5636   77.3556 C   0  0  0  0  0  0  0  0  0  0  0  0
    3.2774   68.9550   83.3165 N   0  0  0  0  0  0  0  0  0  0  0  0
    4.2181   69.1564   82.9895 H   0  0  0  0  0  0  0  0  0  0  0  0
    3.1300   67.5417   83.6383 C   0  0  0  0  0  0  0  0  0  0  0  0
    4.2810   67.1227   84.5247 C   0  0  0  0  0  0  0  0  0  0  0  0
    5.4660   67.8739   84.5466 C   0  0  0  0  0  0  0  0  0  0  0  0
    6.5366   67.4866   85.3535 C   0  0  0  0  0  0  0  0  0  0  0  0
    6.4357   66.3430   86.1434 C   0  0  0  0  0  0  0  0  0  0  0  0
    5.2664   65.5842   86.1251 C   0  0  0  0  0  0  0  0  0  0  0  0
    4.1943   65.9697   85.3182 C   0  0  0  0  0  0  0  0  0  0  0  0
 22 23  1  0  0  0
 23 24  1  0  0  0
 24 25  1  0  0  0
 25 26  1  0  0  0
 26 19  1  0  0  0
 19 20  2  0  0  0
 19 21  2  0  0  0
 19 13  1  0  0  0
 13 14  1  0  0  0
 14 15  2  0  0  0
 15 16  1  0  0  0
 16 11  1  0  0  0
 11  1  1  0  0  0
  1  2  2  0  0  0
  2  3  1  0  0  0
  3 29  1  0  0  0
 29 31  1  0  0  0
 31 32  1  0  0  0
 32 33  2  0  0  0
 33 34  1  0  0  0
 34 35  2  0  0  0
 35 36  1  0  0  0
 36 37  2  0  0  0
  3  4  2  0  0  0
  4  5  1  0  0  0
  5  6  2  0  0  0
  6  7  1  0  0  0
  7  8  2  0  0  0
  8  9  1  0  0  0
  9 10  2  0  0  0
 16 17  2  0  0  0
 17 18  1  0  0  0
 26 27  1  0  0  0
 27 28  1  0  0  0
 28 23  1  0  0  0
 18 13  2  0  0  0
 10  1  1  0  0  0
 37 32  1  0  0  0
  9  4  1  0  0  0
 11 12  1  0  0  0
 29 30  1  0  0  0
M  END
> <minimizedAffinity>
-1.52526

$$$$



 37 41  0  0  0  0  0  0  0  0999 V2000
    2.2116   68.7662   81.9934 C   0  0  0  0  0  0  0  0  0  0  0  0
    1.4447   67.6708   81.9091 N   0  0  0  0  0  0  0  0  0  0  0  0
    1.7192   66.6339   82.7201 C   0  0  0  0  0  0  0  0  0  0  0  0
    2.7568   66.6851   83.6637 C   0  0  0  0  0  0  0  0  0  0  0  0
    3.0785   65.6568   84.5879 C   0  0  0  0  0  0  0  0  0  0  0  0
    4.1387   65.8031   85.4793 C   0  0  0  0  0  0  0  0  0  0  0  0
    4.8843   66.9732   85.4613 C   0  0  0  0  0  0  0  0  0  0  0  0
    4.5580   67.9885   84.5578 C   0  0  0  0  0  0  0  0  0  0  0  0
    3.5024   67.8658   83.6613 C   0  0  0  0  0  0  0  0  0  0  0  0
    3.2415   68.8824   82.8363 N   0  0  0  0  0  0  0  0  0  0  0  0
    1.8646   69.7867   81.1110 N   0  0  0  0  0  0  0  0  0  0  0  0
    1.4939   69.3715   80.2690 H   0  0  0  0  0  0  0  0  0  0  0  0
    1.8359   73.9865   81.4503 C   0  0  0  0  0  0  0  0  0  0  0  0
    0.6495   73.2855   81.6573 C   0  0  0  0  0  0  0  0  0  0  0  0
    0.6440   71.8902   81.5446 C   0  0  0  0  0  0  0  0  0  0  0  0
    1.8043   71.1806   81.2098 C   0  0  0  0  0  0  0  0  0  0  0  0
    2.9857   71.9162   81.0034 C   0  0  0  0  0  0  0  0  0  0  0  0
    3.0073   73.3095   81.1149 C   0  0  0  0  0  0  0  0  0  0  0  0
    1.8686   75.7542   81.5920 S   0  0  0  0  0  0  0  0  0  0  0  0
    0.5777   76.2081   82.0646 O   0  0  0  0  0  0  0  0  0  0  0  0
    2.4388   76.2752   80.3672 O   0  0  0  0  0  0  0  0  0  0  0  0
    5.7862   78.4503   84.7315 C   0  0  0  0  0  0  0  0  0  0  0  0
    4.4630   78.3317   84.1250 N   0  0  0  0  0  0  0  0  0  0  0  0
    3.6367   77.3553   84.8635 C   0  0  0  0  0  0  0  0  0  0  0  0
    2.4782   76.7931   84.0193 C   0  0  0  0  0  0  0  0  0  0  0  0
    2.9965   76.0093   82.8478 N   0  0  0  0  0  0  0  0  0  0  0  0
    4.3284   76.5078   82.3647 C   0  0  0  0  0  0  0  0  0  0  0  0
    4.5402   77.9979   82.6874 C   0  0  0  0  0  0  0  0  0  0  0  0
    0.9154   65.4770   82.6402 N   0  0  0  0  0  0  0  0  0  0  0  0
    1.5050   64.6523   82.7089 H   0  0  0  0  0  0  0  0  0  0  0  0
    0.0509   65.4024   81.4699 C   0  0  0  0  0  0  0  0  0  0  0  0
   -0.3759   63.9653   81.2721 C   0  0  0  0  0  0  0  0  0  0  0  0
   -0.5019   63.4372   79.9782 C   0  0  0  0  0  0  0  0  0  0  0  0
   -0.9064   62.1154   79.7879 C   0  0  0  0  0  0  0  0  0  0  0  0
   -1.1932   61.3092   80.8878 C   0  0  0  0  0  0  0  0  0  0  0  0
   -1.0788   61.8243   82.1781 C   0  0  0  0  0  0  0  0  0  0  0  0
   -0.6746   63.1467   82.3708 C   0  0  0  0  0  0  0  0  0  0  0  0
 22 23  1  0  0  0
 23 24  1  0  0  0
 24 25  1  0  0  0
 25 26  1  0  0  0
 26 19  1  0  0  0
 19 20  2  0  0  0
 19 21  2  0  0  0
 19 13  1  0  0  0
 13 14  1  0  0  0
 14 15  2  0  0  0
 15 16  1  0  0  0
 16 11  1  0  0  0
 11  1  1  0  0  0
  1  2  2  0  0  0
  2  3  1  0  0  0
  3 29  1  0  0  0
 29 31  1  0  0  0
 31 32  1  0  0  0
 32 33  2  0  0  0
 33 34  1  0  0  0
 34 35  2  0  0  0
 35 36  1  0  0  0
 36 37  2  0  0  0
  3  4  2  0  0  0
  4  5  1  0  0  0
  5  6  2  0  0  0
  6  7  1  0  0  0
  7  8  2  0  0  0
  8  9  1  0  0  0
  9 10  2  0  0  0
 16 17  2  0  0  0
 17 18  1  0  0  0
 26 27  1  0  0  0
 27 28  1  0  0  0
 28 23  1  0  0  0
 18 13  2  0  0  0
 10  1  1  0  0  0
 37 32  1  0  0  0
  9  4  1  0  0  0
 11 12  1  0  0  0
 29 30  1  0  0  0
M  END
> <minimizedAffinity>
-1.48927

$$$$
