


 39 45  0  0  0  0  0  0  0  0999 V2000
    0.5320   66.1604   81.7205 C   0  0  0  0  0  0  0  0  0  0  0  0
    0.2623   67.2788   81.2735 O   0  0  0  0  0  0  0  0  0  0  0  0
    0.1099   65.0403   81.0240 N   0  0  0  0  0  0  0  0  0  0  0  0
   -0.5019   65.2036   79.7126 C   0  0  0  0  0  0  0  0  0  0  0  0
   -0.6869   63.8177   79.2077 C   0  0  0  0  0  0  0  0  0  0  0  0
   -0.2893   62.8987   80.1671 C   0  0  0  0  0  0  0  0  0  0  0  0
   -0.3018   61.5619   80.0043 N   0  0  0  0  0  0  0  0  0  0  0  0
   -0.7652   61.1003   78.8286 C   0  0  0  0  0  0  0  0  0  0  0  0
   -0.8089   59.7278   78.6253 C   0  0  0  0  0  0  0  0  0  0  0  0
   -1.2770   59.1726   77.4310 C   0  0  0  0  0  0  0  0  0  0  0  0
   -1.7145   60.0029   76.4073 C   0  0  0  0  0  0  0  0  0  0  0  0
   -1.6822   61.3850   76.5822 C   0  0  0  0  0  0  0  0  0  0  0  0
   -1.2112   61.9524   77.7855 C   0  0  0  0  0  0  0  0  0  0  0  0
   -1.1585   63.3436   78.0037 C   0  0  0  0  0  0  0  0  0  0  0  0
   -1.5737   64.1895   77.0128 O   0  0  0  0  0  0  0  0  0  0  0  0
    0.1963   63.6206   81.4181 C   0  0  0  0  0  0  0  0  0  0  0  0
   -1.4730   65.1136   77.2902 H   0  0  0  0  0  0  0  0  0  0  0  0
   -0.6402   63.2770   82.6421 C   0  0  0  0  0  0  0  0  0  0  0  0
   -2.0540   63.3825   82.6424 C   0  0  0  0  0  0  0  0  0  0  0  0
   -2.8049   63.0616   83.7786 C   0  0  0  0  0  0  0  0  0  0  0  0
   -2.1257   62.6299   84.8955 C   0  0  0  0  0  0  0  0  0  0  0  0
   -0.7576   62.5079   84.9071 C   0  0  0  0  0  0  0  0  0  0  0  0
    0.0087   62.8141   83.8028 C   0  0  0  0  0  0  0  0  0  0  0  0
   -0.2857   62.0635   86.1026 O   0  0  0  0  0  0  0  0  0  0  0  0
   -1.5170   61.9024   86.8355 C   0  0  0  0  0  0  0  0  0  0  0  0
   -2.6888   62.2772   86.0819 O   0  0  0  0  0  0  0  0  0  0  0  0
    3.0107   66.0060   84.3193 C   0  0  0  0  0  0  0  0  0  0  0  0
    1.9141   65.6901   85.0952 C   0  0  0  0  0  0  0  0  0  0  0  0
    0.7902   65.7133   84.2348 C   0  0  0  0  0  0  0  0  0  0  0  0
    1.2585   66.0098   82.9681 C   0  0  0  0  0  0  0  0  0  0  0  0
    2.6072   66.2206   83.0326 O   0  0  0  0  0  0  0  0  0  0  0  0
    7.1966   66.4084   85.0713 C   0  0  0  0  0  0  0  0  0  0  0  0
    6.5272   67.3760   84.3204 C   0  0  0  0  0  0  0  0  0  0  0  0
    5.1565   67.2364   84.0743 C   0  0  0  0  0  0  0  0  0  0  0  0
    4.4416   66.1366   84.5751 C   0  0  0  0  0  0  0  0  0  0  0  0
    5.1354   65.1737   85.3254 C   0  0  0  0  0  0  0  0  0  0  0  0
    6.5048   65.3061   85.5743 C   0  0  0  0  0  0  0  0  0  0  0  0
    9.2477   67.5918   85.0641 O   0  0  0  0  0  0  0  0  0  0  0  0
    8.6427   66.5605   85.3278 C   0  0  0  0  0  0  0  0  0  0  0  0
 38 39  2  0  0  0
 39 32  1  0  0  0
 32 33  1  0  0  0
 33 34  2  0  0  0
 34 35  1  0  0  0
 35 27  1  0  0  0
 27 28  2  0  0  0
 28 29  1  0  0  0
 29 30  2  0  0  0
 30  1  1  0  0  0
  1  2  2  0  0  0
  1  3  1  0  0  0
  3  4  1  0  0  0
  4  5  1  0  0  0
  5  6  1  0  0  0
  6  7  2  0  0  0
  7  8  1  0  0  0
  8  9  2  0  0  0
  9 10  1  0  0  0
 10 11  2  0  0  0
 11 12  1  0  0  0
 12 13  2  0  0  0
 13 14  1  0  0  0
 14 15  1  0  0  0
  6 16  1  0  0  0
 16 18  1  0  0  0
 18 19  1  0  0  0
 19 20  2  0  0  0
 20 21  1  0  0  0
 21 22  2  0  0  0
 22 23  1  0  0  0
 22 24  1  0  0  0
 24 25  1  0  0  0
 25 26  1  0  0  0
 30 31  1  0  0  0
 35 36  2  0  0  0
 36 37  1  0  0  0
 37 32  2  0  0  0
 31 27  1  0  0  0
 16  3  1  0  0  0
 23 18  2  0  0  0
 14  5  2  0  0  0
 26 21  1  0  0  0
 13  8  1  0  0  0
 15 17  1  0  0  0
M  END
> <minimizedAffinity>
-11.10379

$$$$



 39 45  0  0  0  0  0  0  0  0999 V2000
    2.3488   69.5473   79.4434 C   0  0  0  0  0  0  0  0  0  0  0  0
    2.9008   69.4030   78.3489 O   0  0  0  0  0  0  0  0  0  0  0  0
    2.7883   70.5523   80.2888 N   0  0  0  0  0  0  0  0  0  0  0  0
    3.7785   71.5064   79.8092 C   0  0  0  0  0  0  0  0  0  0  0  0
    3.8983   72.5069   80.9022 C   0  0  0  0  0  0  0  0  0  0  0  0
    3.1031   72.1419   81.9782 C   0  0  0  0  0  0  0  0  0  0  0  0
    2.9659   72.8568   83.1112 N   0  0  0  0  0  0  0  0  0  0  0  0
    3.6837   73.9912   83.2010 C   0  0  0  0  0  0  0  0  0  0  0  0
    3.5828   74.7504   84.3587 C   0  0  0  0  0  0  0  0  0  0  0  0
    4.2967   75.9405   84.5262 C   0  0  0  0  0  0  0  0  0  0  0  0
    5.1355   76.3915   83.5155 C   0  0  0  0  0  0  0  0  0  0  0  0
    5.2570   75.6507   82.3414 C   0  0  0  0  0  0  0  0  0  0  0  0
    4.5396   74.4482   82.1658 C   0  0  0  0  0  0  0  0  0  0  0  0
    4.6303   73.6698   80.9947 C   0  0  0  0  0  0  0  0  0  0  0  0
    5.4408   74.0900   79.9766 O   0  0  0  0  0  0  0  0  0  0  0  0
    2.3805   70.8342   81.6789 C   0  0  0  0  0  0  0  0  0  0  0  0
    5.3998   73.4703   79.2314 H   0  0  0  0  0  0  0  0  0  0  0  0
    2.7561   69.7319   82.6585 C   0  0  0  0  0  0  0  0  0  0  0  0
    1.7784   68.9572   83.3323 C   0  0  0  0  0  0  0  0  0  0  0  0
    2.1447   67.9479   84.2293 C   0  0  0  0  0  0  0  0  0  0  0  0
    3.4883   67.7243   84.4297 C   0  0  0  0  0  0  0  0  0  0  0  0
    4.4482   68.4557   83.7739 C   0  0  0  0  0  0  0  0  0  0  0  0
    4.1182   69.4544   82.8827 C   0  0  0  0  0  0  0  0  0  0  0  0
    5.7102   68.0756   84.1089 O   0  0  0  0  0  0  0  0  0  0  0  0
    5.4326   67.0080   85.0376 C   0  0  0  0  0  0  0  0  0  0  0  0
    4.0239   66.7905   85.2605 O   0  0  0  0  0  0  0  0  0  0  0  0
    0.3287   66.8121   80.6095 C   0  0  0  0  0  0  0  0  0  0  0  0
   -0.6913   67.7206   80.4135 C   0  0  0  0  0  0  0  0  0  0  0  0
   -0.0861   68.9146   79.9530 C   0  0  0  0  0  0  0  0  0  0  0  0
    1.2711   68.6678   79.8582 C   0  0  0  0  0  0  0  0  0  0  0  0
    1.5214   67.3962   80.2921 O   0  0  0  0  0  0  0  0  0  0  0  0
    0.5185   62.7381   81.8803 C   0  0  0  0  0  0  0  0  0  0  0  0
    0.2422   63.0396   80.5459 C   0  0  0  0  0  0  0  0  0  0  0  0
    0.1775   64.3765   80.1366 C   0  0  0  0  0  0  0  0  0  0  0  0
    0.3901   65.4219   81.0496 C   0  0  0  0  0  0  0  0  0  0  0  0
    0.6637   65.0958   82.3876 C   0  0  0  0  0  0  0  0  0  0  0  0
    0.7287   63.7626   82.8037 C   0  0  0  0  0  0  0  0  0  0  0  0
    1.6208   60.6750   82.2496 O   0  0  0  0  0  0  0  0  0  0  0  0
    0.5854   61.3260   82.3068 C   0  0  0  0  0  0  0  0  0  0  0  0
 38 39  2  0  0  0
 39 32  1  0  0  0
 32 33  1  0  0  0
 33 34  2  0  0  0
 34 35  1  0  0  0
 35 27  1  0  0  0
 27 28  2  0  0  0
 28 29  1  0  0  0
 29 30  2  0  0  0
 30  1  1  0  0  0
  1  2  2  0  0  0
  1  3  1  0  0  0
  3  4  1  0  0  0
  4  5  1  0  0  0
  5  6  1  0  0  0
  6  7  2  0  0  0
  7  8  1  0  0  0
  8  9  2  0  0  0
  9 10  1  0  0  0
 10 11  2  0  0  0
 11 12  1  0  0  0
 12 13  2  0  0  0
 13 14  1  0  0  0
 14 15  1  0  0  0
  6 16  1  0  0  0
 16 18  1  0  0  0
 18 19  1  0  0  0
 19 20  2  0  0  0
 20 21  1  0  0  0
 21 22  2  0  0  0
 22 23  1  0  0  0
 22 24  1  0  0  0
 24 25  1  0  0  0
 25 26  1  0  0  0
 30 31  1  0  0  0
 35 36  2  0  0  0
 36 37  1  0  0  0
 37 32  2  0  0  0
 31 27  1  0  0  0
 16  3  1  0  0  0
 23 18  2  0  0  0
 14  5  2  0  0  0
 26 21  1  0  0  0
 13  8  1  0  0  0
 15 17  1  0  0  0
M  END
> <minimizedAffinity>
-10.23231

$$$$



 39 45  0  0  0  0  0  0  0  0999 V2000
    3.1155   66.9302   83.1981 C   0  0  0  0  0  0  0  0  0  0  0  0
    4.3428   66.9943   83.3132 O   0  0  0  0  0  0  0  0  0  0  0  0
    2.4023   66.1183   84.0641 N   0  0  0  0  0  0  0  0  0  0  0  0
    3.0916   65.4846   85.1794 C   0  0  0  0  0  0  0  0  0  0  0  0
    2.0137   64.8279   85.9647 C   0  0  0  0  0  0  0  0  0  0  0  0
    0.7902   64.9901   85.3323 C   0  0  0  0  0  0  0  0  0  0  0  0
   -0.3871   64.5401   85.8068 N   0  0  0  0  0  0  0  0  0  0  0  0
   -0.3510   63.8591   86.9666 C   0  0  0  0  0  0  0  0  0  0  0  0
   -1.5409   63.3649   87.4832 C   0  0  0  0  0  0  0  0  0  0  0  0
   -1.5842   62.6481   88.6824 C   0  0  0  0  0  0  0  0  0  0  0  0
   -0.4128   62.4147   89.3909 C   0  0  0  0  0  0  0  0  0  0  0  0
    0.7971   62.8989   88.8973 C   0  0  0  0  0  0  0  0  0  0  0  0
    0.8482   63.6229   87.6870 C   0  0  0  0  0  0  0  0  0  0  0  0
    2.0485   64.1328   87.1532 C   0  0  0  0  0  0  0  0  0  0  0  0
    3.2187   63.9280   87.8303 O   0  0  0  0  0  0  0  0  0  0  0  0
    0.9656   65.7810   84.0418 C   0  0  0  0  0  0  0  0  0  0  0  0
    3.9604   64.3397   87.3597 H   0  0  0  0  0  0  0  0  0  0  0  0
    0.5472   64.9823   82.8158 C   0  0  0  0  0  0  0  0  0  0  0  0
   -0.1726   65.5685   81.7442 C   0  0  0  0  0  0  0  0  0  0  0  0
   -0.5479   64.8166   80.6256 C   0  0  0  0  0  0  0  0  0  0  0  0
   -0.1864   63.4885   80.5946 C   0  0  0  0  0  0  0  0  0  0  0  0
    0.5237   62.9089   81.6175 C   0  0  0  0  0  0  0  0  0  0  0  0
    0.9096   63.6244   82.7309 C   0  0  0  0  0  0  0  0  0  0  0  0
    0.7820   61.5932   81.3904 O   0  0  0  0  0  0  0  0  0  0  0  0
    0.1679   61.4172   80.0976 C   0  0  0  0  0  0  0  0  0  0  0  0
   -0.4649   62.6117   79.5934 O   0  0  0  0  0  0  0  0  0  0  0  0
    1.4150   69.3998   81.2155 C   0  0  0  0  0  0  0  0  0  0  0  0
    1.4277   68.3896   80.2756 C   0  0  0  0  0  0  0  0  0  0  0  0
    2.0913   67.2908   80.8723 C   0  0  0  0  0  0  0  0  0  0  0  0
    2.4231   67.6712   82.1596 C   0  0  0  0  0  0  0  0  0  0  0  0
    2.0388   68.9686   82.3509 O   0  0  0  0  0  0  0  0  0  0  0  0
   -0.1219   73.3849   81.2969 C   0  0  0  0  0  0  0  0  0  0  0  0
    1.2302   73.1648   81.0297 C   0  0  0  0  0  0  0  0  0  0  0  0
    1.7284   71.8570   81.0083 C   0  0  0  0  0  0  0  0  0  0  0  0
    0.8860   70.7597   81.2489 C   0  0  0  0  0  0  0  0  0  0  0  0
   -0.4701   71.0043   81.5185 C   0  0  0  0  0  0  0  0  0  0  0  0
   -0.9744   72.3080   81.5426 C   0  0  0  0  0  0  0  0  0  0  0  0
   -0.4566   75.5195   82.2659 O   0  0  0  0  0  0  0  0  0  0  0  0
   -0.6423   74.7666   81.3185 C   0  0  0  0  0  0  0  0  0  0  0  0
 38 39  2  0  0  0
 39 32  1  0  0  0
 32 33  1  0  0  0
 33 34  2  0  0  0
 34 35  1  0  0  0
 35 27  1  0  0  0
 27 28  2  0  0  0
 28 29  1  0  0  0
 29 30  2  0  0  0
 30  1  1  0  0  0
  1  2  2  0  0  0
  1  3  1  0  0  0
  3  4  1  0  0  0
  4  5  1  0  0  0
  5  6  1  0  0  0
  6  7  2  0  0  0
  7  8  1  0  0  0
  8  9  2  0  0  0
  9 10  1  0  0  0
 10 11  2  0  0  0
 11 12  1  0  0  0
 12 13  2  0  0  0
 13 14  1  0  0  0
 14 15  1  0  0  0
  6 16  1  0  0  0
 16 18  1  0  0  0
 18 19  1  0  0  0
 19 20  2  0  0  0
 20 21  1  0  0  0
 21 22  2  0  0  0
 22 23  1  0  0  0
 22 24  1  0  0  0
 24 25  1  0  0  0
 25 26  1  0  0  0
 30 31  1  0  0  0
 35 36  2  0  0  0
 36 37  1  0  0  0
 37 32  2  0  0  0
 31 27  1  0  0  0
 16  3  1  0  0  0
 23 18  2  0  0  0
 14  5  2  0  0  0
 26 21  1  0  0  0
 13  8  1  0  0  0
 15 17  1  0  0  0
M  END
> <minimizedAffinity>
-10.17950

$$$$



 39 45  0  0  0  0  0  0  0  0999 V2000
    3.0557   66.9382   83.2505 C   0  0  0  0  0  0  0  0  0  0  0  0
    4.2572   67.0593   83.5060 O   0  0  0  0  0  0  0  0  0  0  0  0
    2.2839   66.1003   84.0379 N   0  0  0  0  0  0  0  0  0  0  0  0
    2.8668   65.5065   85.2331 C   0  0  0  0  0  0  0  0  0  0  0  0
    1.7355   64.8064   85.8963 C   0  0  0  0  0  0  0  0  0  0  0  0
    0.5877   64.9079   85.1247 C   0  0  0  0  0  0  0  0  0  0  0  0
   -0.6154   64.4076   85.4652 N   0  0  0  0  0  0  0  0  0  0  0  0
   -0.6837   63.7369   86.6295 C   0  0  0  0  0  0  0  0  0  0  0  0
   -1.9021   63.1920   87.0110 C   0  0  0  0  0  0  0  0  0  0  0  0
   -2.0522   62.4823   88.2058 C   0  0  0  0  0  0  0  0  0  0  0  0
   -0.9617   62.3077   89.0478 C   0  0  0  0  0  0  0  0  0  0  0  0
    0.2744   62.8436   88.6916 C   0  0  0  0  0  0  0  0  0  0  0  0
    0.4331   63.5609   87.4867 C   0  0  0  0  0  0  0  0  0  0  0  0
    1.6632   64.1218   87.0892 C   0  0  0  0  0  0  0  0  0  0  0  0
    2.7549   63.9756   87.8995 O   0  0  0  0  0  0  0  0  0  0  0  0
    0.8761   65.6972   83.8536 C   0  0  0  0  0  0  0  0  0  0  0  0
    3.5271   64.4177   87.5129 H   0  0  0  0  0  0  0  0  0  0  0  0
    0.6391   64.8718   82.5973 C   0  0  0  0  0  0  0  0  0  0  0  0
    0.9219   63.4836   82.5433 C   0  0  0  0  0  0  0  0  0  0  0  0
    0.6967   62.7424   81.3781 C   0  0  0  0  0  0  0  0  0  0  0  0
    0.1814   63.4042   80.2864 C   0  0  0  0  0  0  0  0  0  0  0  0
   -0.1120   64.7454   80.3267 C   0  0  0  0  0  0  0  0  0  0  0  0
    0.0966   65.5012   81.4606 C   0  0  0  0  0  0  0  0  0  0  0  0
   -0.6140   65.2032   79.1486 O   0  0  0  0  0  0  0  0  0  0  0  0
   -0.6195   63.9904   78.3685 C   0  0  0  0  0  0  0  0  0  0  0  0
   -0.0991   62.8471   79.0782 O   0  0  0  0  0  0  0  0  0  0  0  0
    1.4932   69.3155   81.0531 C   0  0  0  0  0  0  0  0  0  0  0  0
    1.6519   68.2971   80.1356 C   0  0  0  0  0  0  0  0  0  0  0  0
    2.2870   67.2326   80.8193 C   0  0  0  0  0  0  0  0  0  0  0  0
    2.4560   67.6394   82.1299 C   0  0  0  0  0  0  0  0  0  0  0  0
    2.0015   68.9219   82.2577 O   0  0  0  0  0  0  0  0  0  0  0  0
   -0.2008   73.2343   80.9018 C   0  0  0  0  0  0  0  0  0  0  0  0
    1.1725   73.0613   80.7224 C   0  0  0  0  0  0  0  0  0  0  0  0
    1.7219   71.7752   80.7770 C   0  0  0  0  0  0  0  0  0  0  0  0
    0.9103   70.6528   81.0068 C   0  0  0  0  0  0  0  0  0  0  0  0
   -0.4681   70.8501   81.1875 C   0  0  0  0  0  0  0  0  0  0  0  0
   -1.0237   72.1320   81.1354 C   0  0  0  0  0  0  0  0  0  0  0  0
   -0.5122   75.4497   81.6779 O   0  0  0  0  0  0  0  0  0  0  0  0
   -0.7753   74.5933   80.8434 C   0  0  0  0  0  0  0  0  0  0  0  0
 38 39  2  0  0  0
 39 32  1  0  0  0
 32 33  1  0  0  0
 33 34  2  0  0  0
 34 35  1  0  0  0
 35 27  1  0  0  0
 27 28  2  0  0  0
 28 29  1  0  0  0
 29 30  2  0  0  0
 30  1  1  0  0  0
  1  2  2  0  0  0
  1  3  1  0  0  0
  3  4  1  0  0  0
  4  5  1  0  0  0
  5  6  1  0  0  0
  6  7  2  0  0  0
  7  8  1  0  0  0
  8  9  2  0  0  0
  9 10  1  0  0  0
 10 11  2  0  0  0
 11 12  1  0  0  0
 12 13  2  0  0  0
 13 14  1  0  0  0
 14 15  1  0  0  0
  6 16  1  0  0  0
 16 18  1  0  0  0
 18 19  1  0  0  0
 19 20  2  0  0  0
 20 21  1  0  0  0
 21 22  2  0  0  0
 22 23  1  0  0  0
 22 24  1  0  0  0
 24 25  1  0  0  0
 25 26  1  0  0  0
 30 31  1  0  0  0
 35 36  2  0  0  0
 36 37  1  0  0  0
 37 32  2  0  0  0
 31 27  1  0  0  0
 16  3  1  0  0  0
 23 18  2  0  0  0
 14  5  2  0  0  0
 26 21  1  0  0  0
 13  8  1  0  0  0
 15 17  1  0  0  0
M  END
> <minimizedAffinity>
-9.69248

$$$$



 39 45  0  0  0  0  0  0  0  0999 V2000
    0.3275   71.3696   81.3027 C   0  0  0  0  0  0  0  0  0  0  0  0
   -0.7871   71.5351   80.7990 O   0  0  0  0  0  0  0  0  0  0  0  0
    0.9966   72.4639   81.8249 N   0  0  0  0  0  0  0  0  0  0  0  0
    0.3120   73.7465   81.9075 C   0  0  0  0  0  0  0  0  0  0  0  0
    1.2561   74.6312   82.6396 C   0  0  0  0  0  0  0  0  0  0  0  0
    2.4384   73.9574   82.9068 C   0  0  0  0  0  0  0  0  0  0  0  0
    3.4815   74.4727   83.5852 N   0  0  0  0  0  0  0  0  0  0  0  0
    3.3623   75.7465   84.0013 C   0  0  0  0  0  0  0  0  0  0  0  0
    4.4208   76.3210   84.6915 C   0  0  0  0  0  0  0  0  0  0  0  0
    4.3718   77.6386   85.1556 C   0  0  0  0  0  0  0  0  0  0  0  0
    3.2391   78.4096   84.9291 C   0  0  0  0  0  0  0  0  0  0  0  0
    2.1602   77.8600   84.2393 C   0  0  0  0  0  0  0  0  0  0  0  0
    2.2031   76.5306   83.7675 C   0  0  0  0  0  0  0  0  0  0  0  0
    1.1346   75.9343   83.0686 C   0  0  0  0  0  0  0  0  0  0  0  0
    0.0012   76.6632   82.8363 O   0  0  0  0  0  0  0  0  0  0  0  0
    2.3728   72.5394   82.3529 C   0  0  0  0  0  0  0  0  0  0  0  0
   -0.6540   76.1302   82.3591 H   0  0  0  0  0  0  0  0  0  0  0  0
    3.4427   72.2820   81.3018 C   0  0  0  0  0  0  0  0  0  0  0  0
    3.9841   70.9908   81.0782 C   0  0  0  0  0  0  0  0  0  0  0  0
    4.9674   70.7752   80.1065 C   0  0  0  0  0  0  0  0  0  0  0  0
    5.3862   71.8577   79.3663 C   0  0  0  0  0  0  0  0  0  0  0  0
    4.8614   73.1122   79.5601 C   0  0  0  0  0  0  0  0  0  0  0  0
    3.8901   73.3551   80.5077 C   0  0  0  0  0  0  0  0  0  0  0  0
    5.4065   74.0380   78.7263 O   0  0  0  0  0  0  0  0  0  0  0  0
    6.3217   73.2167   77.9730 C   0  0  0  0  0  0  0  0  0  0  0  0
    6.3278   71.8342   78.3856 O   0  0  0  0  0  0  0  0  0  0  0  0
    2.0681   68.3497   82.1815 C   0  0  0  0  0  0  0  0  0  0  0  0
    1.7047   67.9840   80.9015 C   0  0  0  0  0  0  0  0  0  0  0  0
    0.9694   69.0681   80.3649 C   0  0  0  0  0  0  0  0  0  0  0  0
    0.9470   70.0571   81.3308 C   0  0  0  0  0  0  0  0  0  0  0  0
    1.5887   69.6001   82.4476 O   0  0  0  0  0  0  0  0  0  0  0  0
    4.3059   66.4689   85.2967 C   0  0  0  0  0  0  0  0  0  0  0  0
    3.2241   65.8043   84.7168 C   0  0  0  0  0  0  0  0  0  0  0  0
    2.4926   66.4275   83.6992 C   0  0  0  0  0  0  0  0  0  0  0  0
    2.8330   67.7132   83.2492 C   0  0  0  0  0  0  0  0  0  0  0  0
    3.9229   68.3647   83.8486 C   0  0  0  0  0  0  0  0  0  0  0  0
    4.6575   67.7487   84.8663 C   0  0  0  0  0  0  0  0  0  0  0  0
    5.4166   64.6336   86.2994 O   0  0  0  0  0  0  0  0  0  0  0  0
    5.0742   65.8070   86.3700 C   0  0  0  0  0  0  0  0  0  0  0  0
 38 39  2  0  0  0
 39 32  1  0  0  0
 32 33  1  0  0  0
 33 34  2  0  0  0
 34 35  1  0  0  0
 35 27  1  0  0  0
 27 28  2  0  0  0
 28 29  1  0  0  0
 29 30  2  0  0  0
 30  1  1  0  0  0
  1  2  2  0  0  0
  1  3  1  0  0  0
  3  4  1  0  0  0
  4  5  1  0  0  0
  5  6  1  0  0  0
  6  7  2  0  0  0
  7  8  1  0  0  0
  8  9  2  0  0  0
  9 10  1  0  0  0
 10 11  2  0  0  0
 11 12  1  0  0  0
 12 13  2  0  0  0
 13 14  1  0  0  0
 14 15  1  0  0  0
  6 16  1  0  0  0
 16 18  1  0  0  0
 18 19  1  0  0  0
 19 20  2  0  0  0
 20 21  1  0  0  0
 21 22  2  0  0  0
 22 23  1  0  0  0
 22 24  1  0  0  0
 24 25  1  0  0  0
 25 26  1  0  0  0
 30 31  1  0  0  0
 35 36  2  0  0  0
 36 37  1  0  0  0
 37 32  2  0  0  0
 31 27  1  0  0  0
 16  3  1  0  0  0
 23 18  2  0  0  0
 14  5  2  0  0  0
 26 21  1  0  0  0
 13  8  1  0  0  0
 15 17  1  0  0  0
M  END
> <minimizedAffinity>
-9.46299

$$$$



 39 45  0  0  0  0  0  0  0  0999 V2000
    2.2692   69.4333   79.3363 C   0  0  0  0  0  0  0  0  0  0  0  0
    2.7986   69.3270   78.2264 O   0  0  0  0  0  0  0  0  0  0  0  0
    2.7105   70.4240   80.1975 N   0  0  0  0  0  0  0  0  0  0  0  0
    3.6729   71.4076   79.7210 C   0  0  0  0  0  0  0  0  0  0  0  0
    3.8002   72.3817   80.8367 C   0  0  0  0  0  0  0  0  0  0  0  0
    3.0361   71.9751   81.9203 C   0  0  0  0  0  0  0  0  0  0  0  0
    2.9124   72.6582   83.0743 N   0  0  0  0  0  0  0  0  0  0  0  0
    3.6123   73.8026   83.1776 C   0  0  0  0  0  0  0  0  0  0  0  0
    3.5246   74.5299   84.3567 C   0  0  0  0  0  0  0  0  0  0  0  0
    4.2214   75.7278   84.5391 C   0  0  0  0  0  0  0  0  0  0  0  0
    5.0291   76.2196   83.5220 C   0  0  0  0  0  0  0  0  0  0  0  0
    5.1367   75.5114   82.3266 C   0  0  0  0  0  0  0  0  0  0  0  0
    4.4363   74.3011   82.1358 C   0  0  0  0  0  0  0  0  0  0  0  0
    4.5139   73.5548   80.9431 C   0  0  0  0  0  0  0  0  0  0  0  0
    5.2935   74.0154   79.9184 O   0  0  0  0  0  0  0  0  0  0  0  0
    2.3296   70.6628   81.6033 C   0  0  0  0  0  0  0  0  0  0  0  0
    5.2463   73.4143   79.1584 H   0  0  0  0  0  0  0  0  0  0  0  0
    2.7465   69.5426   82.5453 C   0  0  0  0  0  0  0  0  0  0  0  0
    4.0903   69.3703   82.9631 C   0  0  0  0  0  0  0  0  0  0  0  0
    4.4529   68.3336   83.8299 C   0  0  0  0  0  0  0  0  0  0  0  0
    3.4589   67.4903   84.2727 C   0  0  0  0  0  0  0  0  0  0  0  0
    2.1499   67.6523   83.8894 C   0  0  0  0  0  0  0  0  0  0  0  0
    1.7618   68.6654   83.0388 C   0  0  0  0  0  0  0  0  0  0  0  0
    1.3280   66.7193   84.4400 O   0  0  0  0  0  0  0  0  0  0  0  0
    2.2688   65.9628   85.2286 C   0  0  0  0  0  0  0  0  0  0  0  0
    3.6272   66.4351   85.1137 O   0  0  0  0  0  0  0  0  0  0  0  0
    0.3191   66.6214   80.4372 C   0  0  0  0  0  0  0  0  0  0  0  0
   -0.7120   67.5342   80.3492 C   0  0  0  0  0  0  0  0  0  0  0  0
   -0.1344   68.7572   79.9311 C   0  0  0  0  0  0  0  0  0  0  0  0
    1.2167   68.5242   79.7520 C   0  0  0  0  0  0  0  0  0  0  0  0
    1.4923   67.2303   80.0948 O   0  0  0  0  0  0  0  0  0  0  0  0
    0.5638   62.4866   81.4825 C   0  0  0  0  0  0  0  0  0  0  0  0
    0.6447   63.4627   82.4768 C   0  0  0  0  0  0  0  0  0  0  0  0
    0.5677   64.8159   82.1274 C   0  0  0  0  0  0  0  0  0  0  0  0
    0.4067   65.2075   80.7887 C   0  0  0  0  0  0  0  0  0  0  0  0
    0.3307   64.2092   79.8044 C   0  0  0  0  0  0  0  0  0  0  0  0
    0.4079   62.8556   80.1460 C   0  0  0  0  0  0  0  0  0  0  0  0
    1.7050   60.5234   82.1541 O   0  0  0  0  0  0  0  0  0  0  0  0
    0.6457   61.0605   81.8565 C   0  0  0  0  0  0  0  0  0  0  0  0
 38 39  2  0  0  0
 39 32  1  0  0  0
 32 33  1  0  0  0
 33 34  2  0  0  0
 34 35  1  0  0  0
 35 27  1  0  0  0
 27 28  2  0  0  0
 28 29  1  0  0  0
 29 30  2  0  0  0
 30  1  1  0  0  0
  1  2  2  0  0  0
  1  3  1  0  0  0
  3  4  1  0  0  0
  4  5  1  0  0  0
  5  6  1  0  0  0
  6  7  2  0  0  0
  7  8  1  0  0  0
  8  9  2  0  0  0
  9 10  1  0  0  0
 10 11  2  0  0  0
 11 12  1  0  0  0
 12 13  2  0  0  0
 13 14  1  0  0  0
 14 15  1  0  0  0
  6 16  1  0  0  0
 16 18  1  0  0  0
 18 19  1  0  0  0
 19 20  2  0  0  0
 20 21  1  0  0  0
 21 22  2  0  0  0
 22 23  1  0  0  0
 22 24  1  0  0  0
 24 25  1  0  0  0
 25 26  1  0  0  0
 30 31  1  0  0  0
 35 36  2  0  0  0
 36 37  1  0  0  0
 37 32  2  0  0  0
 31 27  1  0  0  0
 16  3  1  0  0  0
 23 18  2  0  0  0
 14  5  2  0  0  0
 26 21  1  0  0  0
 13  8  1  0  0  0
 15 17  1  0  0  0
M  END
> <minimizedAffinity>
-9.00105

$$$$



 39 45  0  0  0  0  0  0  0  0999 V2000
    1.5461   66.3319   80.0548 C   0  0  0  0  0  0  0  0  0  0  0  0
    2.0111   65.9907   78.9635 O   0  0  0  0  0  0  0  0  0  0  0  0
    1.9228   67.5513   80.5924 N   0  0  0  0  0  0  0  0  0  0  0  0
    2.7299   68.4643   79.7951 C   0  0  0  0  0  0  0  0  0  0  0  0
    2.8140   69.7040   80.6113 C   0  0  0  0  0  0  0  0  0  0  0  0
    2.1751   69.5230   81.8288 C   0  0  0  0  0  0  0  0  0  0  0  0
    2.0472   70.4689   82.7789 N   0  0  0  0  0  0  0  0  0  0  0  0
    2.6129   71.6626   82.5237 C   0  0  0  0  0  0  0  0  0  0  0  0
    2.5171   72.6610   83.4833 C   0  0  0  0  0  0  0  0  0  0  0  0
    3.0787   73.9266   83.2911 C   0  0  0  0  0  0  0  0  0  0  0  0
    3.7551   74.2109   82.1120 C   0  0  0  0  0  0  0  0  0  0  0  0
    3.8673   73.2285   81.1300 C   0  0  0  0  0  0  0  0  0  0  0  0
    3.3032   71.9486   81.3176 C   0  0  0  0  0  0  0  0  0  0  0  0
    3.3903   70.9274   80.3506 C   0  0  0  0  0  0  0  0  0  0  0  0
    4.0421   71.1772   79.1747 O   0  0  0  0  0  0  0  0  0  0  0  0
    1.6087   68.1115   81.9213 C   0  0  0  0  0  0  0  0  0  0  0  0
    4.0166   70.3965   78.5993 H   0  0  0  0  0  0  0  0  0  0  0  0
    2.2146   67.3225   83.0729 C   0  0  0  0  0  0  0  0  0  0  0  0
    1.4148   66.7182   84.0755 C   0  0  0  0  0  0  0  0  0  0  0  0
    1.9917   65.9967   85.1262 C   0  0  0  0  0  0  0  0  0  0  0  0
    3.3636   65.8839   85.1498 C   0  0  0  0  0  0  0  0  0  0  0  0
    4.1520   66.4505   84.1783 C   0  0  0  0  0  0  0  0  0  0  0  0
    3.6126   67.1648   83.1298 C   0  0  0  0  0  0  0  0  0  0  0  0
    5.4763   66.2196   84.3837 O   0  0  0  0  0  0  0  0  0  0  0  0
    5.4282   65.4264   85.5870 C   0  0  0  0  0  0  0  0  0  0  0  0
    4.0912   65.2239   86.0899 O   0  0  0  0  0  0  0  0  0  0  0  0
   -0.7660   63.7834   81.0943 C   0  0  0  0  0  0  0  0  0  0  0  0
   -0.6350   64.4177   82.3128 C   0  0  0  0  0  0  0  0  0  0  0  0
    0.2789   65.4812   82.1185 C   0  0  0  0  0  0  0  0  0  0  0  0
    0.6370   65.4658   80.7831 C   0  0  0  0  0  0  0  0  0  0  0  0
    0.0235   64.4084   80.1722 O   0  0  0  0  0  0  0  0  0  0  0  0
   -3.0667   60.4753   79.6755 C   0  0  0  0  0  0  0  0  0  0  0  0
   -3.6199   61.3641   80.5986 C   0  0  0  0  0  0  0  0  0  0  0  0
   -2.8596   62.4437   81.0625 C   0  0  0  0  0  0  0  0  0  0  0  0
   -1.5464   62.6490   80.6100 C   0  0  0  0  0  0  0  0  0  0  0  0
   -1.0087   61.7411   79.6837 C   0  0  0  0  0  0  0  0  0  0  0  0
   -1.7620   60.6598   79.2168 C   0  0  0  0  0  0  0  0  0  0  0  0
   -3.8848   58.2547   79.7602 O   0  0  0  0  0  0  0  0  0  0  0  0
   -3.8730   59.3379   79.1895 C   0  0  0  0  0  0  0  0  0  0  0  0
 38 39  2  0  0  0
 39 32  1  0  0  0
 32 33  1  0  0  0
 33 34  2  0  0  0
 34 35  1  0  0  0
 35 27  1  0  0  0
 27 28  2  0  0  0
 28 29  1  0  0  0
 29 30  2  0  0  0
 30  1  1  0  0  0
  1  2  2  0  0  0
  1  3  1  0  0  0
  3  4  1  0  0  0
  4  5  1  0  0  0
  5  6  1  0  0  0
  6  7  2  0  0  0
  7  8  1  0  0  0
  8  9  2  0  0  0
  9 10  1  0  0  0
 10 11  2  0  0  0
 11 12  1  0  0  0
 12 13  2  0  0  0
 13 14  1  0  0  0
 14 15  1  0  0  0
  6 16  1  0  0  0
 16 18  1  0  0  0
 18 19  1  0  0  0
 19 20  2  0  0  0
 20 21  1  0  0  0
 21 22  2  0  0  0
 22 23  1  0  0  0
 22 24  1  0  0  0
 24 25  1  0  0  0
 25 26  1  0  0  0
 30 31  1  0  0  0
 35 36  2  0  0  0
 36 37  1  0  0  0
 37 32  2  0  0  0
 31 27  1  0  0  0
 16  3  1  0  0  0
 23 18  2  0  0  0
 14  5  2  0  0  0
 26 21  1  0  0  0
 13  8  1  0  0  0
 15 17  1  0  0  0
M  END
> <minimizedAffinity>
-8.96842

$$$$



 39 45  0  0  0  0  0  0  0  0999 V2000
    1.6970   66.3328   82.0751 C   0  0  0  0  0  0  0  0  0  0  0  0
    2.8538   66.7629   82.0551 O   0  0  0  0  0  0  0  0  0  0  0  0
    1.2850   65.5666   83.1526 N   0  0  0  0  0  0  0  0  0  0  0  0
    2.1681   65.4163   84.3009 C   0  0  0  0  0  0  0  0  0  0  0  0
    1.3594   64.6747   85.3038 C   0  0  0  0  0  0  0  0  0  0  0  0
    0.1219   64.3420   84.7736 C   0  0  0  0  0  0  0  0  0  0  0  0
   -0.8532   63.6965   85.4414 N   0  0  0  0  0  0  0  0  0  0  0  0
   -0.5785   63.3283   86.7060 C   0  0  0  0  0  0  0  0  0  0  0  0
   -1.5511   62.6473   87.4251 C   0  0  0  0  0  0  0  0  0  0  0  0
   -1.3402   62.2323   88.7431 C   0  0  0  0  0  0  0  0  0  0  0  0
   -0.1289   62.5008   89.3670 C   0  0  0  0  0  0  0  0  0  0  0  0
    0.8666   63.1831   88.6703 C   0  0  0  0  0  0  0  0  0  0  0  0
    0.6606   63.6047   87.3394 C   0  0  0  0  0  0  0  0  0  0  0  0
    1.6380   64.2995   86.5993 C   0  0  0  0  0  0  0  0  0  0  0  0
    2.8388   64.5874   87.1870 O   0  0  0  0  0  0  0  0  0  0  0  0
    0.0122   64.8431   83.3388 C   0  0  0  0  0  0  0  0  0  0  0  0
    3.4094   65.0757   86.5729 H   0  0  0  0  0  0  0  0  0  0  0  0
   -0.1929   63.7076   82.3466 C   0  0  0  0  0  0  0  0  0  0  0  0
    0.8290   62.7696   82.0532 C   0  0  0  0  0  0  0  0  0  0  0  0
    0.6201   61.7325   81.1376 C   0  0  0  0  0  0  0  0  0  0  0  0
   -0.6155   61.6462   80.5368 C   0  0  0  0  0  0  0  0  0  0  0  0
   -1.6210   62.5378   80.8209 C   0  0  0  0  0  0  0  0  0  0  0  0
   -1.4460   63.5680   81.7200 C   0  0  0  0  0  0  0  0  0  0  0  0
   -2.7600   62.2754   80.1258 O   0  0  0  0  0  0  0  0  0  0  0  0
   -2.3601   61.1044   79.3852 C   0  0  0  0  0  0  0  0  0  0  0  0
   -0.9939   60.7090   79.6271 O   0  0  0  0  0  0  0  0  0  0  0  0
   -0.5785   67.7895   79.7040 C   0  0  0  0  0  0  0  0  0  0  0  0
   -0.5290   66.5246   79.1548 C   0  0  0  0  0  0  0  0  0  0  0  0
    0.3577   65.7692   79.9591 C   0  0  0  0  0  0  0  0  0  0  0  0
    0.7819   66.5994   80.9803 C   0  0  0  0  0  0  0  0  0  0  0  0
    0.2348   67.8386   80.7997 O   0  0  0  0  0  0  0  0  0  0  0  0
   -2.6959   71.3758   78.7531 C   0  0  0  0  0  0  0  0  0  0  0  0
   -2.9709   70.1984   78.0558 C   0  0  0  0  0  0  0  0  0  0  0  0
   -2.2709   69.0277   78.3695 C   0  0  0  0  0  0  0  0  0  0  0  0
   -1.2960   69.0185   79.3798 C   0  0  0  0  0  0  0  0  0  0  0  0
   -1.0333   70.2146   80.0665 C   0  0  0  0  0  0  0  0  0  0  0  0
   -1.7278   71.3882   79.7577 C   0  0  0  0  0  0  0  0  0  0  0  0
   -4.4819   72.9143   78.9783 O   0  0  0  0  0  0  0  0  0  0  0  0
   -3.4372   72.6081   78.4181 C   0  0  0  0  0  0  0  0  0  0  0  0
 38 39  2  0  0  0
 39 32  1  0  0  0
 32 33  1  0  0  0
 33 34  2  0  0  0
 34 35  1  0  0  0
 35 27  1  0  0  0
 27 28  2  0  0  0
 28 29  1  0  0  0
 29 30  2  0  0  0
 30  1  1  0  0  0
  1  2  2  0  0  0
  1  3  1  0  0  0
  3  4  1  0  0  0
  4  5  1  0  0  0
  5  6  1  0  0  0
  6  7  2  0  0  0
  7  8  1  0  0  0
  8  9  2  0  0  0
  9 10  1  0  0  0
 10 11  2  0  0  0
 11 12  1  0  0  0
 12 13  2  0  0  0
 13 14  1  0  0  0
 14 15  1  0  0  0
  6 16  1  0  0  0
 16 18  1  0  0  0
 18 19  1  0  0  0
 19 20  2  0  0  0
 20 21  1  0  0  0
 21 22  2  0  0  0
 22 23  1  0  0  0
 22 24  1  0  0  0
 24 25  1  0  0  0
 25 26  1  0  0  0
 30 31  1  0  0  0
 35 36  2  0  0  0
 36 37  1  0  0  0
 37 32  2  0  0  0
 31 27  1  0  0  0
 16  3  1  0  0  0
 23 18  2  0  0  0
 14  5  2  0  0  0
 26 21  1  0  0  0
 13  8  1  0  0  0
 15 17  1  0  0  0
M  END
> <minimizedAffinity>
-8.80587

$$$$



 39 45  0  0  0  0  0  0  0  0999 V2000
    1.2070   65.7044   79.7255 C   0  0  0  0  0  0  0  0  0  0  0  0
    1.8166   65.3050   78.7294 O   0  0  0  0  0  0  0  0  0  0  0  0
    1.5237   66.9452   80.2527 N   0  0  0  0  0  0  0  0  0  0  0  0
    2.4511   67.8097   79.5362 C   0  0  0  0  0  0  0  0  0  0  0  0
    2.4390   69.0874   80.2961 C   0  0  0  0  0  0  0  0  0  0  0  0
    1.6305   68.9733   81.4170 C   0  0  0  0  0  0  0  0  0  0  0  0
    1.3846   69.9662   82.2929 N   0  0  0  0  0  0  0  0  0  0  0  0
    2.0007   71.1403   82.0646 C   0  0  0  0  0  0  0  0  0  0  0  0
    1.7861   72.1859   82.9520 C   0  0  0  0  0  0  0  0  0  0  0  0
    2.3903   73.4349   82.7818 C   0  0  0  0  0  0  0  0  0  0  0  0
    3.2322   73.6538   81.6993 C   0  0  0  0  0  0  0  0  0  0  0  0
    3.4664   72.6230   80.7913 C   0  0  0  0  0  0  0  0  0  0  0  0
    2.8601   71.3595   80.9572 C   0  0  0  0  0  0  0  0  0  0  0  0
    3.0667   70.2908   80.0623 C   0  0  0  0  0  0  0  0  0  0  0  0
    3.8832   70.4756   78.9810 O   0  0  0  0  0  0  0  0  0  0  0  0
    1.0332   67.5736   81.4948 C   0  0  0  0  0  0  0  0  0  0  0  0
    3.9268   69.6677   78.4457 H   0  0  0  0  0  0  0  0  0  0  0  0
    1.4560   66.8368   82.7575 C   0  0  0  0  0  0  0  0  0  0  0  0
    0.5150   66.2256   83.6241 C   0  0  0  0  0  0  0  0  0  0  0  0
    0.9245   65.5526   84.7804 C   0  0  0  0  0  0  0  0  0  0  0  0
    2.2743   65.4946   85.0449 C   0  0  0  0  0  0  0  0  0  0  0  0
    3.1999   66.0685   84.2080 C   0  0  0  0  0  0  0  0  0  0  0  0
    2.8273   66.7357   83.0607 C   0  0  0  0  0  0  0  0  0  0  0  0
    4.4753   65.8949   84.6468 O   0  0  0  0  0  0  0  0  0  0  0  0
    4.2456   65.1293   85.8471 C   0  0  0  0  0  0  0  0  0  0  0  0
    2.8493   64.8863   86.1165 O   0  0  0  0  0  0  0  0  0  0  0  0
   -0.7866   63.7319   81.9742 C   0  0  0  0  0  0  0  0  0  0  0  0
   -1.6311   63.6742   80.8845 C   0  0  0  0  0  0  0  0  0  0  0  0
   -1.0167   64.4291   79.8566 C   0  0  0  0  0  0  0  0  0  0  0  0
    0.1892   64.8844   80.3569 C   0  0  0  0  0  0  0  0  0  0  0  0
    0.3078   64.4849   81.6585 O   0  0  0  0  0  0  0  0  0  0  0  0
   -0.8866   62.0813   85.9131 C   0  0  0  0  0  0  0  0  0  0  0  0
   -1.9929   62.7747   85.4198 C   0  0  0  0  0  0  0  0  0  0  0  0
   -1.9524   63.3165   84.1299 C   0  0  0  0  0  0  0  0  0  0  0  0
   -0.8141   63.1700   83.3210 C   0  0  0  0  0  0  0  0  0  0  0  0
    0.2884   62.4714   83.8383 C   0  0  0  0  0  0  0  0  0  0  0  0
    0.2555   61.9285   85.1263 C   0  0  0  0  0  0  0  0  0  0  0  0
   -0.3785   62.0461   88.2257 O   0  0  0  0  0  0  0  0  0  0  0  0
   -0.9345   61.5119   87.2746 C   0  0  0  0  0  0  0  0  0  0  0  0
 38 39  2  0  0  0
 39 32  1  0  0  0
 32 33  1  0  0  0
 33 34  2  0  0  0
 34 35  1  0  0  0
 35 27  1  0  0  0
 27 28  2  0  0  0
 28 29  1  0  0  0
 29 30  2  0  0  0
 30  1  1  0  0  0
  1  2  2  0  0  0
  1  3  1  0  0  0
  3  4  1  0  0  0
  4  5  1  0  0  0
  5  6  1  0  0  0
  6  7  2  0  0  0
  7  8  1  0  0  0
  8  9  2  0  0  0
  9 10  1  0  0  0
 10 11  2  0  0  0
 11 12  1  0  0  0
 12 13  2  0  0  0
 13 14  1  0  0  0
 14 15  1  0  0  0
  6 16  1  0  0  0
 16 18  1  0  0  0
 18 19  1  0  0  0
 19 20  2  0  0  0
 20 21  1  0  0  0
 21 22  2  0  0  0
 22 23  1  0  0  0
 22 24  1  0  0  0
 24 25  1  0  0  0
 25 26  1  0  0  0
 30 31  1  0  0  0
 35 36  2  0  0  0
 36 37  1  0  0  0
 37 32  2  0  0  0
 31 27  1  0  0  0
 16  3  1  0  0  0
 23 18  2  0  0  0
 14  5  2  0  0  0
 26 21  1  0  0  0
 13  8  1  0  0  0
 15 17  1  0  0  0
M  END
> <minimizedAffinity>
-8.70000

$$$$
