


 30 33  0  0  0  0  0  0  0  0999 V2000
   -0.7904   62.8695   81.4909 C   0  0  0  0  0  0  0  0  0  0  0  0
   -1.0678   62.7215   82.8635 C   0  0  0  0  0  0  0  0  0  0  0  0
   -2.0535   61.8119   83.2310 C   0  0  0  0  0  0  0  0  0  0  0  0
   -2.7324   61.0503   82.3416 N   0  0  0  0  0  0  0  0  0  0  0  0
   -2.4621   61.1820   81.0368 C   0  0  0  0  0  0  0  0  0  0  0  0
   -3.1733   60.3895   80.1452 C   0  0  0  0  0  0  0  0  0  0  0  0
   -2.9595   60.4509   78.7668 C   0  0  0  0  0  0  0  0  0  0  0  0
   -2.0097   61.3282   78.2686 C   0  0  0  0  0  0  0  0  0  0  0  0
   -1.7000   61.4268   76.4078 Br  0  0  0  0  0  0  0  0  0  0  0  0
   -1.2808   62.1369   79.1382 C   0  0  0  0  0  0  0  0  0  0  0  0
   -1.4925   62.0789   80.5392 C   0  0  0  0  0  0  0  0  0  0  0  0
   -2.3914   61.5955   84.6789 C   0  0  0  0  0  0  0  0  0  0  0  0
   -2.1159   62.8474   85.4978 C   0  0  0  0  0  0  0  0  0  0  0  0
   -0.7492   63.3147   85.2814 N   0  0  0  0  0  0  0  0  0  0  0  0
    0.0412   63.9025   86.2609 C   0  0  0  0  0  0  0  0  0  0  0  0
   -0.4104   63.7632   87.6920 C   0  0  0  0  0  0  0  0  0  0  0  0
    1.0814   64.5069   85.9962 O   0  0  0  0  0  0  0  0  0  0  0  0
   -0.3635   63.5696   83.8936 C   0  0  0  0  0  0  0  0  0  0  0  0
    0.2477   63.7615   81.1063 N   0  0  0  0  0  0  0  0  0  0  0  0
    0.7952   64.0458   81.9162 H   0  0  0  0  0  0  0  0  0  0  0  0
   -0.2666   64.9514   80.4182 C   0  0  0  0  0  0  0  0  0  0  0  0
    2.1500   68.3704   81.5553 C   0  0  0  0  0  0  0  0  0  0  0  0
    1.3076   68.4295   80.4413 C   0  0  0  0  0  0  0  0  0  0  0  0
    0.5270   67.3250   80.0807 C   0  0  0  0  0  0  0  0  0  0  0  0
    0.5676   66.1402   80.8279 C   0  0  0  0  0  0  0  0  0  0  0  0
    1.4159   66.0755   81.9396 C   0  0  0  0  0  0  0  0  0  0  0  0
    2.1964   67.1804   82.2992 C   0  0  0  0  0  0  0  0  0  0  0  0
    3.2177   67.0238   83.6878 Cl  0  0  0  0  0  0  0  0  0  0  0  0
    2.5329   70.7244   81.6795 C   0  0  0  0  0  0  0  0  0  0  0  0
    2.9486   69.3993   81.9818 O   0  0  0  0  0  0  0  0  0  0  0  0
 29 30  1  0  0  0
 30 22  1  0  0  0
 22 23  1  0  0  0
 23 24  2  0  0  0
 24 25  1  0  0  0
 25 21  1  0  0  0
 21 19  1  0  0  0
 19  1  1  0  0  0
  1  2  2  0  0  0
  2  3  1  0  0  0
  3  4  2  0  0  0
  4  5  1  0  0  0
  5  6  2  0  0  0
  6  7  1  0  0  0
  7  8  2  0  0  0
  8  9  1  0  0  0
  8 10  1  0  0  0
 10 11  2  0  0  0
  3 12  1  0  0  0
 12 13  1  0  0  0
 13 14  1  0  0  0
 14 15  1  0  0  0
 15 16  1  0  0  0
 15 17  2  0  0  0
 14 18  1  0  0  0
 25 26  2  0  0  0
 26 27  1  0  0  0
 27 28  1  0  0  0
 27 22  2  0  0  0
 11  1  1  0  0  0
 18  2  1  0  0  0
 11  5  1  0  0  0
 19 20  1  0  0  0
M  END
> <minimizedAffinity>
-1.50336

$$$$



 30 33  0  0  0  0  0  0  0  0999 V2000
   -0.6879   63.0303   81.4014 C   0  0  0  0  0  0  0  0  0  0  0  0
   -0.8509   62.8773   82.7917 C   0  0  0  0  0  0  0  0  0  0  0  0
   -1.7463   61.9108   83.2367 C   0  0  0  0  0  0  0  0  0  0  0  0
   -2.4406   61.1000   82.4045 N   0  0  0  0  0  0  0  0  0  0  0  0
   -2.2785   61.2368   81.0825 C   0  0  0  0  0  0  0  0  0  0  0  0
   -3.0032   60.3931   80.2506 C   0  0  0  0  0  0  0  0  0  0  0  0
   -2.8984   60.4555   78.8598 C   0  0  0  0  0  0  0  0  0  0  0  0
   -2.0464   61.3864   78.2874 C   0  0  0  0  0  0  0  0  0  0  0  0
   -1.8849   61.4878   76.4080 Br  0  0  0  0  0  0  0  0  0  0  0  0
   -1.3069   62.2473   79.0957 C   0  0  0  0  0  0  0  0  0  0  0  0
   -1.4082   62.1885   80.5091 C   0  0  0  0  0  0  0  0  0  0  0  0
   -1.9595   61.6864   84.7070 C   0  0  0  0  0  0  0  0  0  0  0  0
   -1.7032   62.9605   85.4974 C   0  0  0  0  0  0  0  0  0  0  0  0
   -0.3891   63.5110   85.1760 N   0  0  0  0  0  0  0  0  0  0  0  0
    0.4341   64.1562   86.0903 C   0  0  0  0  0  0  0  0  0  0  0  0
    0.1015   64.0015   87.5520 C   0  0  0  0  0  0  0  0  0  0  0  0
    1.4108   64.8226   85.7449 O   0  0  0  0  0  0  0  0  0  0  0  0
   -0.1262   63.7773   83.7619 C   0  0  0  0  0  0  0  0  0  0  0  0
    0.2595   63.9825   80.9355 N   0  0  0  0  0  0  0  0  0  0  0  0
    0.8754   64.2755   81.6913 H   0  0  0  0  0  0  0  0  0  0  0  0
   -0.3815   65.1602   80.3389 C   0  0  0  0  0  0  0  0  0  0  0  0
    1.7054   68.6934   81.7473 C   0  0  0  0  0  0  0  0  0  0  0  0
    2.1625   67.4143   82.0775 C   0  0  0  0  0  0  0  0  0  0  0  0
    1.4879   66.2773   81.6175 C   0  0  0  0  0  0  0  0  0  0  0  0
    0.3457   66.3940   80.8140 C   0  0  0  0  0  0  0  0  0  0  0  0
   -0.1187   67.6736   80.4879 C   0  0  0  0  0  0  0  0  0  0  0  0
    0.5563   68.8100   80.9487 C   0  0  0  0  0  0  0  0  0  0  0  0
   -0.0776   70.3570   80.5006 Cl  0  0  0  0  0  0  0  0  0  0  0  0
    3.7088   69.8511   82.3383 C   0  0  0  0  0  0  0  0  0  0  0  0
    2.2998   69.8601   82.1518 O   0  0  0  0  0  0  0  0  0  0  0  0
 29 30  1  0  0  0
 30 22  1  0  0  0
 22 23  1  0  0  0
 23 24  2  0  0  0
 24 25  1  0  0  0
 25 21  1  0  0  0
 21 19  1  0  0  0
 19  1  1  0  0  0
  1  2  2  0  0  0
  2  3  1  0  0  0
  3  4  2  0  0  0
  4  5  1  0  0  0
  5  6  2  0  0  0
  6  7  1  0  0  0
  7  8  2  0  0  0
  8  9  1  0  0  0
  8 10  1  0  0  0
 10 11  2  0  0  0
  3 12  1  0  0  0
 12 13  1  0  0  0
 13 14  1  0  0  0
 14 15  1  0  0  0
 15 16  1  0  0  0
 15 17  2  0  0  0
 14 18  1  0  0  0
 25 26  2  0  0  0
 26 27  1  0  0  0
 27 28  1  0  0  0
 27 22  2  0  0  0
 11  1  1  0  0  0
 18  2  1  0  0  0
 11  5  1  0  0  0
 19 20  1  0  0  0
M  END
> <minimizedAffinity>
-1.41242

$$$$



 30 33  0  0  0  0  0  0  0  0999 V2000
   -0.6939   62.8265   81.7032 C   0  0  0  0  0  0  0  0  0  0  0  0
   -1.5055   62.0471   80.8566 C   0  0  0  0  0  0  0  0  0  0  0  0
   -2.4707   61.2392   81.4479 C   0  0  0  0  0  0  0  0  0  0  0  0
   -2.6822   61.1885   82.7839 N   0  0  0  0  0  0  0  0  0  0  0  0
   -1.9185   61.9372   83.5894 C   0  0  0  0  0  0  0  0  0  0  0  0
   -2.1553   61.8662   84.9561 C   0  0  0  0  0  0  0  0  0  0  0  0
   -1.4155   62.6122   85.8755 C   0  0  0  0  0  0  0  0  0  0  0  0
   -0.4129   63.4504   85.4149 C   0  0  0  0  0  0  0  0  0  0  0  0
    0.5996   64.4724   86.6392 Br  0  0  0  0  0  0  0  0  0  0  0  0
   -0.1509   63.5423   84.0495 C   0  0  0  0  0  0  0  0  0  0  0  0
   -0.8993   62.7879   83.1103 C   0  0  0  0  0  0  0  0  0  0  0  0
   -3.3789   60.3912   80.6031 C   0  0  0  0  0  0  0  0  0  0  0  0
   -2.7047   60.0023   79.2962 C   0  0  0  0  0  0  0  0  0  0  0  0
   -2.2007   61.1855   78.6040 N   0  0  0  0  0  0  0  0  0  0  0  0
   -2.1855   61.3373   77.2233 C   0  0  0  0  0  0  0  0  0  0  0  0
   -3.0177   60.3784   76.4113 C   0  0  0  0  0  0  0  0  0  0  0  0
   -1.5364   62.2215   76.6626 O   0  0  0  0  0  0  0  0  0  0  0  0
   -1.2895   62.0416   79.3634 C   0  0  0  0  0  0  0  0  0  0  0  0
    0.2642   63.6917   81.1076 N   0  0  0  0  0  0  0  0  0  0  0  0
    0.9883   63.9415   81.7783 H   0  0  0  0  0  0  0  0  0  0  0  0
   -0.3468   64.9114   80.5666 C   0  0  0  0  0  0  0  0  0  0  0  0
    2.2188   68.2807   81.5091 C   0  0  0  0  0  0  0  0  0  0  0  0
    1.3695   68.3176   80.3993 C   0  0  0  0  0  0  0  0  0  0  0  0
    0.5408   67.2295   80.1016 C   0  0  0  0  0  0  0  0  0  0  0  0
    0.5393   66.0839   80.9087 C   0  0  0  0  0  0  0  0  0  0  0  0
    1.3942   66.0411   82.0163 C   0  0  0  0  0  0  0  0  0  0  0  0
    2.2228   67.1295   82.3131 C   0  0  0  0  0  0  0  0  0  0  0  0
    3.2492   67.0020   83.7009 Cl  0  0  0  0  0  0  0  0  0  0  0  0
    2.8493   70.5739   81.2919 C   0  0  0  0  0  0  0  0  0  0  0  0
    3.0629   69.2960   81.8764 O   0  0  0  0  0  0  0  0  0  0  0  0
 29 30  1  0  0  0
 30 22  1  0  0  0
 22 23  1  0  0  0
 23 24  2  0  0  0
 24 25  1  0  0  0
 25 21  1  0  0  0
 21 19  1  0  0  0
 19  1  1  0  0  0
  1  2  2  0  0  0
  2  3  1  0  0  0
  3  4  2  0  0  0
  4  5  1  0  0  0
  5  6  2  0  0  0
  6  7  1  0  0  0
  7  8  2  0  0  0
  8  9  1  0  0  0
  8 10  1  0  0  0
 10 11  2  0  0  0
  3 12  1  0  0  0
 12 13  1  0  0  0
 13 14  1  0  0  0
 14 15  1  0  0  0
 15 16  1  0  0  0
 15 17  2  0  0  0
 14 18  1  0  0  0
 25 26  2  0  0  0
 26 27  1  0  0  0
 27 28  1  0  0  0
 27 22  2  0  0  0
 11  1  1  0  0  0
 18  2  1  0  0  0
 11  5  1  0  0  0
 19 20  1  0  0  0
M  END
> <minimizedAffinity>
-1.34616

$$$$



 30 33  0  0  0  0  0  0  0  0999 V2000
   -0.0413   63.5458   80.7016 C   0  0  0  0  0  0  0  0  0  0  0  0
    0.4222   64.8710   80.8101 C   0  0  0  0  0  0  0  0  0  0  0  0
    0.3541   65.6761   79.6782 C   0  0  0  0  0  0  0  0  0  0  0  0
   -0.1572   65.2576   78.4969 N   0  0  0  0  0  0  0  0  0  0  0  0
   -0.6084   64.0011   78.3952 C   0  0  0  0  0  0  0  0  0  0  0  0
   -1.1272   63.5965   77.1721 C   0  0  0  0  0  0  0  0  0  0  0  0
   -1.6263   62.3085   76.9691 C   0  0  0  0  0  0  0  0  0  0  0  0
   -1.6052   61.4025   78.0173 C   0  0  0  0  0  0  0  0  0  0  0  0
   -2.2780   59.6550   77.7681 Br  0  0  0  0  0  0  0  0  0  0  0  0
   -1.0900   61.7786   79.2561 C   0  0  0  0  0  0  0  0  0  0  0  0
   -0.5823   63.0855   79.4691 C   0  0  0  0  0  0  0  0  0  0  0  0
    0.8201   67.1036   79.7271 C   0  0  0  0  0  0  0  0  0  0  0  0
    1.9099   67.2876   80.7723 C   0  0  0  0  0  0  0  0  0  0  0  0
    1.4745   66.7715   82.0674 N   0  0  0  0  0  0  0  0  0  0  0  0
    1.8180   67.3347   83.2899 C   0  0  0  0  0  0  0  0  0  0  0  0
    2.4003   68.7247   83.2736 C   0  0  0  0  0  0  0  0  0  0  0  0
    1.6502   66.7464   84.3591 O   0  0  0  0  0  0  0  0  0  0  0  0
    1.0318   65.3775   82.0940 C   0  0  0  0  0  0  0  0  0  0  0  0
   -0.0203   62.7281   81.8644 N   0  0  0  0  0  0  0  0  0  0  0  0
    0.3723   61.8129   81.6528 H   0  0  0  0  0  0  0  0  0  0  0  0
   -1.3537   62.5662   82.4558 C   0  0  0  0  0  0  0  0  0  0  0  0
   -1.0458   62.9750   86.7640 C   0  0  0  0  0  0  0  0  0  0  0  0
   -2.1800   62.4036   86.1796 C   0  0  0  0  0  0  0  0  0  0  0  0
   -2.2729   62.2704   84.7893 C   0  0  0  0  0  0  0  0  0  0  0  0
   -1.2332   62.7006   83.9539 C   0  0  0  0  0  0  0  0  0  0  0  0
   -0.0996   63.2799   84.5358 C   0  0  0  0  0  0  0  0  0  0  0  0
   -0.0076   63.4130   85.9262 C   0  0  0  0  0  0  0  0  0  0  0  0
    1.4268   64.1366   86.5702 Cl  0  0  0  0  0  0  0  0  0  0  0  0
   -0.1421   62.1448   88.8128 C   0  0  0  0  0  0  0  0  0  0  0  0
   -0.8681   63.1459   88.1121 O   0  0  0  0  0  0  0  0  0  0  0  0
 29 30  1  0  0  0
 30 22  1  0  0  0
 22 23  1  0  0  0
 23 24  2  0  0  0
 24 25  1  0  0  0
 25 21  1  0  0  0
 21 19  1  0  0  0
 19  1  1  0  0  0
  1  2  2  0  0  0
  2  3  1  0  0  0
  3  4  2  0  0  0
  4  5  1  0  0  0
  5  6  2  0  0  0
  6  7  1  0  0  0
  7  8  2  0  0  0
  8  9  1  0  0  0
  8 10  1  0  0  0
 10 11  2  0  0  0
  3 12  1  0  0  0
 12 13  1  0  0  0
 13 14  1  0  0  0
 14 15  1  0  0  0
 15 16  1  0  0  0
 15 17  2  0  0  0
 14 18  1  0  0  0
 25 26  2  0  0  0
 26 27  1  0  0  0
 27 28  1  0  0  0
 27 22  2  0  0  0
 11  1  1  0  0  0
 18  2  1  0  0  0
 11  5  1  0  0  0
 19 20  1  0  0  0
M  END
> <minimizedAffinity>
-1.25333

$$$$



 30 33  0  0  0  0  0  0  0  0999 V2000
   -0.6749   62.9338   81.7641 C   0  0  0  0  0  0  0  0  0  0  0  0
   -1.4731   62.1633   80.8969 C   0  0  0  0  0  0  0  0  0  0  0  0
   -2.4094   61.3075   81.4669 C   0  0  0  0  0  0  0  0  0  0  0  0
   -2.6060   61.2023   82.8019 N   0  0  0  0  0  0  0  0  0  0  0  0
   -1.8553   61.9424   83.6274 C   0  0  0  0  0  0  0  0  0  0  0  0
   -2.0763   61.8149   84.9927 C   0  0  0  0  0  0  0  0  0  0  0  0
   -1.3482   62.5475   85.9321 C   0  0  0  0  0  0  0  0  0  0  0  0
   -0.3739   63.4298   85.4935 C   0  0  0  0  0  0  0  0  0  0  0  0
    0.6220   64.4345   86.7453 Br  0  0  0  0  0  0  0  0  0  0  0  0
   -0.1284   63.5787   84.1301 C   0  0  0  0  0  0  0  0  0  0  0  0
   -0.8650   62.8383   83.1707 C   0  0  0  0  0  0  0  0  0  0  0  0
   -3.3022   60.4657   80.5998 C   0  0  0  0  0  0  0  0  0  0  0  0
   -2.6307   60.1438   79.2734 C   0  0  0  0  0  0  0  0  0  0  0  0
   -2.1667   61.3651   78.6206 N   0  0  0  0  0  0  0  0  0  0  0  0
   -2.1697   61.5675   77.2463 C   0  0  0  0  0  0  0  0  0  0  0  0
   -2.9830   60.6158   76.4072 C   0  0  0  0  0  0  0  0  0  0  0  0
   -1.5510   62.4894   76.7126 O   0  0  0  0  0  0  0  0  0  0  0  0
   -1.2720   62.2183   79.4026 C   0  0  0  0  0  0  0  0  0  0  0  0
    0.2528   63.8468   81.1921 N   0  0  0  0  0  0  0  0  0  0  0  0
    0.9713   64.0992   81.8677 H   0  0  0  0  0  0  0  0  0  0  0  0
   -0.3989   65.0621   80.6901 C   0  0  0  0  0  0  0  0  0  0  0  0
    1.9232   68.4864   81.9958 C   0  0  0  0  0  0  0  0  0  0  0  0
    2.2385   67.1984   82.4383 C   0  0  0  0  0  0  0  0  0  0  0  0
    1.4887   66.0963   82.0111 C   0  0  0  0  0  0  0  0  0  0  0  0
    0.4114   66.2569   81.1294 C   0  0  0  0  0  0  0  0  0  0  0  0
    0.0886   67.5463   80.6905 C   0  0  0  0  0  0  0  0  0  0  0  0
    0.8388   68.6479   81.1184 C   0  0  0  0  0  0  0  0  0  0  0  0
    0.3796   70.2093   80.5296 Cl  0  0  0  0  0  0  0  0  0  0  0  0
    3.6922   70.0267   81.5471 C   0  0  0  0  0  0  0  0  0  0  0  0
    2.5994   69.6213   82.3605 O   0  0  0  0  0  0  0  0  0  0  0  0
 29 30  1  0  0  0
 30 22  1  0  0  0
 22 23  1  0  0  0
 23 24  2  0  0  0
 24 25  1  0  0  0
 25 21  1  0  0  0
 21 19  1  0  0  0
 19  1  1  0  0  0
  1  2  2  0  0  0
  2  3  1  0  0  0
  3  4  2  0  0  0
  4  5  1  0  0  0
  5  6  2  0  0  0
  6  7  1  0  0  0
  7  8  2  0  0  0
  8  9  1  0  0  0
  8 10  1  0  0  0
 10 11  2  0  0  0
  3 12  1  0  0  0
 12 13  1  0  0  0
 13 14  1  0  0  0
 14 15  1  0  0  0
 15 16  1  0  0  0
 15 17  2  0  0  0
 14 18  1  0  0  0
 25 26  2  0  0  0
 26 27  1  0  0  0
 27 28  1  0  0  0
 27 22  2  0  0  0
 11  1  1  0  0  0
 18  2  1  0  0  0
 11  5  1  0  0  0
 19 20  1  0  0  0
M  END
> <minimizedAffinity>
-1.22395

$$$$



 30 33  0  0  0  0  0  0  0  0999 V2000
   -0.1819   63.6530   80.7624 C   0  0  0  0  0  0  0  0  0  0  0  0
   -0.6527   63.2154   79.5095 C   0  0  0  0  0  0  0  0  0  0  0  0
   -0.5281   64.0844   78.4309 C   0  0  0  0  0  0  0  0  0  0  0  0
    0.0438   65.3077   78.5229 N   0  0  0  0  0  0  0  0  0  0  0  0
    0.5019   65.7208   79.7113 C   0  0  0  0  0  0  0  0  0  0  0  0
    1.0834   66.9803   79.7788 C   0  0  0  0  0  0  0  0  0  0  0  0
    1.5945   67.4969   80.9709 C   0  0  0  0  0  0  0  0  0  0  0  0
    1.5213   66.7332   82.1248 C   0  0  0  0  0  0  0  0  0  0  0  0
    2.2090   67.4092   83.7492 Br  0  0  0  0  0  0  0  0  0  0  0  0
    0.9427   65.4662   82.0890 C   0  0  0  0  0  0  0  0  0  0  0  0
    0.4224   64.9353   80.8812 C   0  0  0  0  0  0  0  0  0  0  0  0
   -0.9985   63.6768   77.0634 C   0  0  0  0  0  0  0  0  0  0  0  0
   -2.1407   62.6762   77.1538 C   0  0  0  0  0  0  0  0  0  0  0  0
   -1.7714   61.5476   78.0040 N   0  0  0  0  0  0  0  0  0  0  0  0
   -2.1781   60.2374   77.7857 C   0  0  0  0  0  0  0  0  0  0  0  0
   -2.7612   59.9084   76.4355 C   0  0  0  0  0  0  0  0  0  0  0  0
   -2.0643   59.3586   78.6414 O   0  0  0  0  0  0  0  0  0  0  0  0
   -1.3282   61.8746   79.3591 C   0  0  0  0  0  0  0  0  0  0  0  0
   -0.2610   62.7553   81.8621 N   0  0  0  0  0  0  0  0  0  0  0  0
   -0.0328   61.8074   81.5689 H   0  0  0  0  0  0  0  0  0  0  0  0
   -1.5836   62.7684   82.4980 C   0  0  0  0  0  0  0  0  0  0  0  0
   -1.0823   62.9378   86.8040 C   0  0  0  0  0  0  0  0  0  0  0  0
   -2.2247   62.3629   86.2396 C   0  0  0  0  0  0  0  0  0  0  0  0
   -2.3801   62.3071   84.8497 C   0  0  0  0  0  0  0  0  0  0  0  0
   -1.3956   62.8200   83.9943 C   0  0  0  0  0  0  0  0  0  0  0  0
   -0.2540   63.4030   84.5566 C   0  0  0  0  0  0  0  0  0  0  0  0
   -0.0996   63.4586   85.9467 C   0  0  0  0  0  0  0  0  0  0  0  0
    1.3406   64.1923   86.5658 Cl  0  0  0  0  0  0  0  0  0  0  0  0
   -0.0754   62.0096   88.7605 C   0  0  0  0  0  0  0  0  0  0  0  0
   -0.8455   63.0365   88.1503 O   0  0  0  0  0  0  0  0  0  0  0  0
 29 30  1  0  0  0
 30 22  1  0  0  0
 22 23  1  0  0  0
 23 24  2  0  0  0
 24 25  1  0  0  0
 25 21  1  0  0  0
 21 19  1  0  0  0
 19  1  1  0  0  0
  1  2  2  0  0  0
  2  3  1  0  0  0
  3  4  2  0  0  0
  4  5  1  0  0  0
  5  6  2  0  0  0
  6  7  1  0  0  0
  7  8  2  0  0  0
  8  9  1  0  0  0
  8 10  1  0  0  0
 10 11  2  0  0  0
  3 12  1  0  0  0
 12 13  1  0  0  0
 13 14  1  0  0  0
 14 15  1  0  0  0
 15 16  1  0  0  0
 15 17  2  0  0  0
 14 18  1  0  0  0
 25 26  2  0  0  0
 26 27  1  0  0  0
 27 28  1  0  0  0
 27 22  2  0  0  0
 11  1  1  0  0  0
 18  2  1  0  0  0
 11  5  1  0  0  0
 19 20  1  0  0  0
M  END
> <minimizedAffinity>
-1.21674

$$$$



 30 33  0  0  0  0  0  0  0  0999 V2000
   -0.5266   62.9560   82.4106 C   0  0  0  0  0  0  0  0  0  0  0  0
   -1.1909   62.3942   81.3034 C   0  0  0  0  0  0  0  0  0  0  0  0
   -2.3317   61.6374   81.5478 C   0  0  0  0  0  0  0  0  0  0  0  0
   -2.8434   61.4406   82.7853 N   0  0  0  0  0  0  0  0  0  0  0  0
   -2.2190   61.9833   83.8381 C   0  0  0  0  0  0  0  0  0  0  0  0
   -2.7640   61.7655   85.0969 C   0  0  0  0  0  0  0  0  0  0  0  0
   -2.1887   62.2936   86.2542 C   0  0  0  0  0  0  0  0  0  0  0  0
   -1.0384   63.0589   86.1485 C   0  0  0  0  0  0  0  0  0  0  0  0
   -0.2434   63.7871   87.6998 Br  0  0  0  0  0  0  0  0  0  0  0  0
   -0.4676   63.2941   84.8995 C   0  0  0  0  0  0  0  0  0  0  0  0
   -1.0474   62.7613   83.7200 C   0  0  0  0  0  0  0  0  0  0  0  0
   -3.0962   61.0193   80.4115 C   0  0  0  0  0  0  0  0  0  0  0  0
   -2.1807   60.7245   79.2329 C   0  0  0  0  0  0  0  0  0  0  0  0
   -1.4316   61.9185   78.8507 N   0  0  0  0  0  0  0  0  0  0  0  0
   -1.0915   62.2440   77.5437 C   0  0  0  0  0  0  0  0  0  0  0  0
   -1.7992   61.5034   76.4383 C   0  0  0  0  0  0  0  0  0  0  0  0
   -0.2575   63.1095   77.2738 O   0  0  0  0  0  0  0  0  0  0  0  0
   -0.6443   62.5554   79.9063 C   0  0  0  0  0  0  0  0  0  0  0  0
    0.6134   63.7705   82.1693 N   0  0  0  0  0  0  0  0  0  0  0  0
    1.2995   63.6572   82.9128 H   0  0  0  0  0  0  0  0  0  0  0  0
    0.2653   65.1898   82.0336 C   0  0  0  0  0  0  0  0  0  0  0  0
    3.3936   67.5581   83.8850 C   0  0  0  0  0  0  0  0  0  0  0  0
    3.0502   66.3030   84.3960 C   0  0  0  0  0  0  0  0  0  0  0  0
    2.0428   65.5410   83.7929 C   0  0  0  0  0  0  0  0  0  0  0  0
    1.3607   66.0143   82.6639 C   0  0  0  0  0  0  0  0  0  0  0  0
    1.6973   67.2740   82.1544 C   0  0  0  0  0  0  0  0  0  0  0  0
    2.7046   68.0354   82.7585 C   0  0  0  0  0  0  0  0  0  0  0  0
    3.0653   69.5812   82.0685 Cl  0  0  0  0  0  0  0  0  0  0  0  0
    5.5292   67.7525   84.9361 C   0  0  0  0  0  0  0  0  0  0  0  0
    4.3638   68.3721   84.4089 O   0  0  0  0  0  0  0  0  0  0  0  0
 29 30  1  0  0  0
 30 22  1  0  0  0
 22 23  1  0  0  0
 23 24  2  0  0  0
 24 25  1  0  0  0
 25 21  1  0  0  0
 21 19  1  0  0  0
 19  1  1  0  0  0
  1  2  2  0  0  0
  2  3  1  0  0  0
  3  4  2  0  0  0
  4  5  1  0  0  0
  5  6  2  0  0  0
  6  7  1  0  0  0
  7  8  2  0  0  0
  8  9  1  0  0  0
  8 10  1  0  0  0
 10 11  2  0  0  0
  3 12  1  0  0  0
 12 13  1  0  0  0
 13 14  1  0  0  0
 14 15  1  0  0  0
 15 16  1  0  0  0
 15 17  2  0  0  0
 14 18  1  0  0  0
 25 26  2  0  0  0
 26 27  1  0  0  0
 27 28  1  0  0  0
 27 22  2  0  0  0
 11  1  1  0  0  0
 18  2  1  0  0  0
 11  5  1  0  0  0
 19 20  1  0  0  0
M  END
> <minimizedAffinity>
-1.16445

$$$$



 30 33  0  0  0  0  0  0  0  0999 V2000
   -0.2260   63.3955   82.6464 C   0  0  0  0  0  0  0  0  0  0  0  0
   -0.7921   63.0374   83.8850 C   0  0  0  0  0  0  0  0  0  0  0  0
   -1.9607   62.2837   83.8697 C   0  0  0  0  0  0  0  0  0  0  0  0
   -2.5579   61.8595   82.7315 N   0  0  0  0  0  0  0  0  0  0  0  0
   -2.0148   62.1900   81.5531 C   0  0  0  0  0  0  0  0  0  0  0  0
   -2.6476   61.7429   80.4005 C   0  0  0  0  0  0  0  0  0  0  0  0
   -2.1553   62.0313   79.1262 C   0  0  0  0  0  0  0  0  0  0  0  0
   -1.0002   62.7867   79.0029 C   0  0  0  0  0  0  0  0  0  0  0  0
   -0.3128   63.1871   77.2896 Br  0  0  0  0  0  0  0  0  0  0  0  0
   -0.3434   63.2503   80.1409 C   0  0  0  0  0  0  0  0  0  0  0  0
   -0.8377   62.9602   81.4381 C   0  0  0  0  0  0  0  0  0  0  0  0
   -2.6111   61.8568   85.1551 C   0  0  0  0  0  0  0  0  0  0  0  0
   -2.3138   62.8448   86.2728 C   0  0  0  0  0  0  0  0  0  0  0  0
   -0.8757   63.0694   86.3933 N   0  0  0  0  0  0  0  0  0  0  0  0
   -0.2157   63.2870   87.5961 C   0  0  0  0  0  0  0  0  0  0  0  0
   -0.9607   62.9599   88.8647 C   0  0  0  0  0  0  0  0  0  0  0  0
    0.9376   63.7167   87.6490 O   0  0  0  0  0  0  0  0  0  0  0  0
   -0.1850   63.5120   85.1822 C   0  0  0  0  0  0  0  0  0  0  0  0
    0.9940   64.1255   82.6498 N   0  0  0  0  0  0  0  0  0  0  0  0
    1.5979   63.8119   83.4071 H   0  0  0  0  0  0  0  0  0  0  0  0
    0.7771   65.5727   82.7610 C   0  0  0  0  0  0  0  0  0  0  0  0
    4.2648   67.3457   84.6357 C   0  0  0  0  0  0  0  0  0  0  0  0
    3.6134   67.9929   83.5817 C   0  0  0  0  0  0  0  0  0  0  0  0
    2.4862   67.4186   82.9826 C   0  0  0  0  0  0  0  0  0  0  0  0
    1.9831   66.1884   83.4269 C   0  0  0  0  0  0  0  0  0  0  0  0
    2.6378   65.5344   84.4771 C   0  0  0  0  0  0  0  0  0  0  0  0
    3.7651   66.1093   85.0754 C   0  0  0  0  0  0  0  0  0  0  0  0
    4.5175   65.2412   86.3700 Cl  0  0  0  0  0  0  0  0  0  0  0  0
    6.6417   67.3433   84.8672 C   0  0  0  0  0  0  0  0  0  0  0  0
    5.3724   67.8311   85.2806 O   0  0  0  0  0  0  0  0  0  0  0  0
 29 30  1  0  0  0
 30 22  1  0  0  0
 22 23  1  0  0  0
 23 24  2  0  0  0
 24 25  1  0  0  0
 25 21  1  0  0  0
 21 19  1  0  0  0
 19  1  1  0  0  0
  1  2  2  0  0  0
  2  3  1  0  0  0
  3  4  2  0  0  0
  4  5  1  0  0  0
  5  6  2  0  0  0
  6  7  1  0  0  0
  7  8  2  0  0  0
  8  9  1  0  0  0
  8 10  1  0  0  0
 10 11  2  0  0  0
  3 12  1  0  0  0
 12 13  1  0  0  0
 13 14  1  0  0  0
 14 15  1  0  0  0
 15 16  1  0  0  0
 15 17  2  0  0  0
 14 18  1  0  0  0
 25 26  2  0  0  0
 26 27  1  0  0  0
 27 28  1  0  0  0
 27 22  2  0  0  0
 11  1  1  0  0  0
 18  2  1  0  0  0
 11  5  1  0  0  0
 19 20  1  0  0  0
M  END
> <minimizedAffinity>
-1.11076

$$$$



 30 33  0  0  0  0  0  0  0  0999 V2000
    2.1614   75.0910   81.1278 C   0  0  0  0  0  0  0  0  0  0  0  0
    0.9621   75.6650   80.6641 C   0  0  0  0  0  0  0  0  0  0  0  0
    0.8298   77.0468   80.7489 C   0  0  0  0  0  0  0  0  0  0  0  0
    1.8013   77.8595   81.2260 N   0  0  0  0  0  0  0  0  0  0  0  0
    2.9466   77.3161   81.6571 C   0  0  0  0  0  0  0  0  0  0  0  0
    3.9267   78.1720   82.1427 C   0  0  0  0  0  0  0  0  0  0  0  0
    5.1555   77.7014   82.6096 C   0  0  0  0  0  0  0  0  0  0  0  0
    5.4091   76.3393   82.5901 C   0  0  0  0  0  0  0  0  0  0  0  0
    7.0655   75.6787   83.2135 Br  0  0  0  0  0  0  0  0  0  0  0  0
    4.4450   75.4555   82.1098 C   0  0  0  0  0  0  0  0  0  0  0  0
    3.1953   75.9271   81.6333 C   0  0  0  0  0  0  0  0  0  0  0  0
   -0.4186   77.7259   80.2612 C   0  0  0  0  0  0  0  0  0  0  0  0
   -1.6217   76.8014   80.3688 C   0  0  0  0  0  0  0  0  0  0  0  0
   -1.3539   75.5275   79.7065 N   0  0  0  0  0  0  0  0  0  0  0  0
   -2.3069   74.7884   79.0171 C   0  0  0  0  0  0  0  0  0  0  0  0
   -3.5970   75.4813   78.6607 C   0  0  0  0  0  0  0  0  0  0  0  0
   -2.1225   73.6160   78.6873 O   0  0  0  0  0  0  0  0  0  0  0  0
   -0.1652   74.8017   80.1536 C   0  0  0  0  0  0  0  0  0  0  0  0
    2.3268   73.6844   81.0026 N   0  0  0  0  0  0  0  0  0  0  0  0
    1.7484   73.3206   80.2480 H   0  0  0  0  0  0  0  0  0  0  0  0
    2.0144   72.9737   82.2480 C   0  0  0  0  0  0  0  0  0  0  0  0
    1.9409   68.7126   81.4358 C   0  0  0  0  0  0  0  0  0  0  0  0
    1.2118   69.6039   80.6432 C   0  0  0  0  0  0  0  0  0  0  0  0
    1.2418   70.9782   80.9069 C   0  0  0  0  0  0  0  0  0  0  0  0
    2.0044   71.4916   81.9646 C   0  0  0  0  0  0  0  0  0  0  0  0
    2.7295   70.6008   82.7647 C   0  0  0  0  0  0  0  0  0  0  0  0
    2.6986   69.2266   82.5004 C   0  0  0  0  0  0  0  0  0  0  0  0
    3.6238   68.1898   83.5323 Cl  0  0  0  0  0  0  0  0  0  0  0  0
    0.9283   66.7708   80.4833 C   0  0  0  0  0  0  0  0  0  0  0  0
    1.9708   67.3547   81.2528 O   0  0  0  0  0  0  0  0  0  0  0  0
 29 30  1  0  0  0
 30 22  1  0  0  0
 22 23  1  0  0  0
 23 24  2  0  0  0
 24 25  1  0  0  0
 25 21  1  0  0  0
 21 19  1  0  0  0
 19  1  1  0  0  0
  1  2  2  0  0  0
  2  3  1  0  0  0
  3  4  2  0  0  0
  4  5  1  0  0  0
  5  6  2  0  0  0
  6  7  1  0  0  0
  7  8  2  0  0  0
  8  9  1  0  0  0
  8 10  1  0  0  0
 10 11  2  0  0  0
  3 12  1  0  0  0
 12 13  1  0  0  0
 13 14  1  0  0  0
 14 15  1  0  0  0
 15 16  1  0  0  0
 15 17  2  0  0  0
 14 18  1  0  0  0
 25 26  2  0  0  0
 26 27  1  0  0  0
 27 28  1  0  0  0
 27 22  2  0  0  0
 11  1  1  0  0  0
 18  2  1  0  0  0
 11  5  1  0  0  0
 19 20  1  0  0  0
M  END
> <minimizedAffinity>
-1.09859

$$$$
