


 36 40  0  0  0  0  0  0  0  0999 V2000
    3.2781   66.9843   84.0797 C   0  0  0  0  0  0  0  0  0  0  0  0
    4.0274   68.1585   83.9056 C   0  0  0  0  0  0  0  0  0  0  0  0
    3.6221   69.1286   82.9895 C   0  0  0  0  0  0  0  0  0  0  0  0
    2.4501   68.9339   82.2629 C   0  0  0  0  0  0  0  0  0  0  0  0
    1.6894   67.7749   82.4347 C   0  0  0  0  0  0  0  0  0  0  0  0
    2.0823   66.7797   83.3549 C   0  0  0  0  0  0  0  0  0  0  0  0
    1.2314   65.5886   83.5262 C   0  0  0  0  0  0  0  0  0  0  0  0
    0.9989   65.1583   84.7870 N   0  0  0  0  0  0  0  0  0  0  0  0
    0.2483   64.0569   84.9396 C   0  0  0  0  0  0  0  0  0  0  0  0
    0.0359   63.6852   86.2368 O   0  0  0  0  0  0  0  0  0  0  0  0
   -0.2556   63.3634   83.8450 C   0  0  0  0  0  0  0  0  0  0  0  0
   -1.0269   62.2357   83.7153 N   0  0  0  0  0  0  0  0  0  0  0  0
   -1.1697   62.0681   82.4179 C   0  0  0  0  0  0  0  0  0  0  0  0
   -1.8691   61.0638   81.7020 C   0  0  0  0  0  0  0  0  0  0  0  0
   -1.8770   61.0879   80.3588 C   0  0  0  0  0  0  0  0  0  0  0  0
   -1.1829   62.1226   79.5978 C   0  0  0  0  0  0  0  0  0  0  0  0
   -1.3162   61.9733   77.7368 Br  0  0  0  0  0  0  0  0  0  0  0  0
   -0.5073   63.0955   80.2566 C   0  0  0  0  0  0  0  0  0  0  0  0
    0.2481   64.2140   79.5883 C   0  0  0  0  0  0  0  0  0  0  0  0
   -0.5126   63.0533   81.6738 N   0  0  0  0  0  0  0  0  0  0  0  0
    0.0738   63.8924   82.6070 C   0  0  0  0  0  0  0  0  0  0  0  0
    0.8158   64.9948   82.3832 N   0  0  0  0  0  0  0  0  0  0  0  0
    0.5191   64.3868   86.7057 H   0  0  0  0  0  0  0  0  0  0  0  0
    1.9297   70.1818   81.1111 S   0  0  0  0  0  0  0  0  0  0  0  0
    3.1295   70.8208   80.6142 O   0  0  0  0  0  0  0  0  0  0  0  0
    0.9712   69.5899   80.2031 O   0  0  0  0  0  0  0  0  0  0  0  0
    1.1104   71.2846   82.1132 N   0  0  0  0  0  0  0  0  0  0  0  0
   -0.2354   71.7550   81.6577 C   0  0  0  0  0  0  0  0  0  0  0  0
   -0.1489   72.9145   80.6434 C   0  0  0  0  0  0  0  0  0  0  0  0
    0.6696   74.0410   81.1352 N   0  0  0  0  0  0  0  0  0  0  0  0
    0.7742   75.0832   80.1148 C   0  0  0  0  0  0  0  0  0  0  0  0
    2.0116   73.5561   81.5191 C   0  0  0  0  0  0  0  0  0  0  0  0
    1.9341   72.4429   82.5797 C   0  0  0  0  0  0  0  0  0  0  0  0
    3.6207   66.0559   85.0318 O   0  0  0  0  0  0  0  0  0  0  0  0
    5.3698   65.9085   86.7370 C   0  0  0  0  0  0  0  0  0  0  0  0
    5.0203   65.8608   85.2582 C   0  0  0  0  0  0  0  0  0  0  0  0
 35 36  1  0  0  0
 36 34  1  0  0  0
 34  1  1  0  0  0
  1  2  1  0  0  0
  2  3  2  0  0  0
  3  4  1  0  0  0
  4 24  1  0  0  0
 24 25  2  0  0  0
 24 26  2  0  0  0
 24 27  1  0  0  0
 27 28  1  0  0  0
 28 29  1  0  0  0
 29 30  1  0  0  0
 30 31  1  0  0  0
 30 32  1  0  0  0
 32 33  1  0  0  0
  4  5  2  0  0  0
  5  6  1  0  0  0
  6  7  1  0  0  0
  7  8  2  0  0  0
  8  9  1  0  0  0
  9 10  1  0  0  0
  9 11  2  0  0  0
 11 12  1  0  0  0
 12 13  2  0  0  0
 13 14  1  0  0  0
 14 15  2  0  0  0
 15 16  1  0  0  0
 16 17  1  0  0  0
 16 18  2  0  0  0
 18 19  1  0  0  0
 18 20  1  0  0  0
 20 21  1  0  0  0
 21 22  2  0  0  0
  6  1  2  0  0  0
 22  7  1  0  0  0
 33 27  1  0  0  0
 21 11  1  0  0  0
 20 13  1  0  0  0
 10 23  1  0  0  0
M  END
> <minimizedAffinity>
-1.83835

$$$$



 36 40  0  0  0  0  0  0  0  0999 V2000
    1.5289   74.2120   81.5149 C   0  0  0  0  0  0  0  0  0  0  0  0
    0.5139   73.2762   81.2606 C   0  0  0  0  0  0  0  0  0  0  0  0
    0.8196   71.9251   81.1002 C   0  0  0  0  0  0  0  0  0  0  0  0
    2.1424   71.5058   81.2188 C   0  0  0  0  0  0  0  0  0  0  0  0
    3.1604   72.4253   81.4826 C   0  0  0  0  0  0  0  0  0  0  0  0
    2.8734   73.7973   81.6465 C   0  0  0  0  0  0  0  0  0  0  0  0
    3.9753   74.7259   81.9557 C   0  0  0  0  0  0  0  0  0  0  0  0
    3.9520   75.3519   83.1543 N   0  0  0  0  0  0  0  0  0  0  0  0
    4.9401   76.2189   83.4221 C   0  0  0  0  0  0  0  0  0  0  0  0
    4.8689   76.8036   84.6547 O   0  0  0  0  0  0  0  0  0  0  0  0
    5.9419   76.4879   82.4964 C   0  0  0  0  0  0  0  0  0  0  0  0
    7.0405   77.3104   82.5062 N   0  0  0  0  0  0  0  0  0  0  0  0
    7.6064   77.1368   81.3310 C   0  0  0  0  0  0  0  0  0  0  0  0
    8.7733   77.7305   80.7867 C   0  0  0  0  0  0  0  0  0  0  0  0
    9.1692   77.4027   79.5455 C   0  0  0  0  0  0  0  0  0  0  0  0
    8.4334   76.4458   78.7243 C   0  0  0  0  0  0  0  0  0  0  0  0
    9.1513   76.1303   77.0247 Br  0  0  0  0  0  0  0  0  0  0  0  0
    7.3149   75.8624   79.2199 C   0  0  0  0  0  0  0  0  0  0  0  0
    6.4693   74.8641   78.4737 C   0  0  0  0  0  0  0  0  0  0  0  0
    6.9149   76.2203   80.5322 N   0  0  0  0  0  0  0  0  0  0  0  0
    5.8392   75.8004   81.2973 C   0  0  0  0  0  0  0  0  0  0  0  0
    4.8796   74.9141   80.9665 N   0  0  0  0  0  0  0  0  0  0  0  0
    4.0678   76.3804   85.0079 H   0  0  0  0  0  0  0  0  0  0  0  0
    2.5225   69.7809   81.0316 S   0  0  0  0  0  0  0  0  0  0  0  0
    2.4917   69.4959   79.6130 O   0  0  0  0  0  0  0  0  0  0  0  0
    3.6963   69.4863   81.8245 O   0  0  0  0  0  0  0  0  0  0  0  0
    1.1809   69.0306   81.7585 N   0  0  0  0  0  0  0  0  0  0  0  0
    1.4493   67.8477   82.6354 C   0  0  0  0  0  0  0  0  0  0  0  0
    1.6065   66.5373   81.8360 C   0  0  0  0  0  0  0  0  0  0  0  0
    0.4664   66.2817   80.9326 N   0  0  0  0  0  0  0  0  0  0  0  0
    0.6929   65.0660   80.1520 C   0  0  0  0  0  0  0  0  0  0  0  0
    0.2650   67.4407   80.0385 C   0  0  0  0  0  0  0  0  0  0  0  0
    0.0429   68.7413   80.8318 C   0  0  0  0  0  0  0  0  0  0  0  0
    1.2364   75.5326   81.7519 O   0  0  0  0  0  0  0  0  0  0  0  0
    0.1380   77.5916   81.0151 C   0  0  0  0  0  0  0  0  0  0  0  0
    0.1102   76.0721   81.0527 C   0  0  0  0  0  0  0  0  0  0  0  0
 35 36  1  0  0  0
 36 34  1  0  0  0
 34  1  1  0  0  0
  1  2  1  0  0  0
  2  3  2  0  0  0
  3  4  1  0  0  0
  4 24  1  0  0  0
 24 25  2  0  0  0
 24 26  2  0  0  0
 24 27  1  0  0  0
 27 28  1  0  0  0
 28 29  1  0  0  0
 29 30  1  0  0  0
 30 31  1  0  0  0
 30 32  1  0  0  0
 32 33  1  0  0  0
  4  5  2  0  0  0
  5  6  1  0  0  0
  6  7  1  0  0  0
  7  8  2  0  0  0
  8  9  1  0  0  0
  9 10  1  0  0  0
  9 11  2  0  0  0
 11 12  1  0  0  0
 12 13  2  0  0  0
 13 14  1  0  0  0
 14 15  2  0  0  0
 15 16  1  0  0  0
 16 17  1  0  0  0
 16 18  2  0  0  0
 18 19  1  0  0  0
 18 20  1  0  0  0
 20 21  1  0  0  0
 21 22  2  0  0  0
  6  1  2  0  0  0
 22  7  1  0  0  0
 33 27  1  0  0  0
 21 11  1  0  0  0
 20 13  1  0  0  0
 10 23  1  0  0  0
M  END
> <minimizedAffinity>
-1.36796

$$$$



 36 40  0  0  0  0  0  0  0  0999 V2000
    1.9152   76.3933   82.6981 C   0  0  0  0  0  0  0  0  0  0  0  0
    3.0506   77.0908   83.1396 C   0  0  0  0  0  0  0  0  0  0  0  0
    4.2852   76.8996   82.5201 C   0  0  0  0  0  0  0  0  0  0  0  0
    4.3787   76.0258   81.4396 C   0  0  0  0  0  0  0  0  0  0  0  0
    3.2541   75.3339   80.9834 C   0  0  0  0  0  0  0  0  0  0  0  0
    1.9956   75.5111   81.5971 C   0  0  0  0  0  0  0  0  0  0  0  0
    0.8306   74.7848   81.0612 C   0  0  0  0  0  0  0  0  0  0  0  0
    0.6837   73.4868   81.4112 N   0  0  0  0  0  0  0  0  0  0  0  0
   -0.3612   72.8192   80.8990 C   0  0  0  0  0  0  0  0  0  0  0  0
   -0.4633   71.5190   81.3051 O   0  0  0  0  0  0  0  0  0  0  0  0
   -1.2514   73.4260   80.0201 C   0  0  0  0  0  0  0  0  0  0  0  0
   -2.3726   72.9890   79.3604 N   0  0  0  0  0  0  0  0  0  0  0  0
   -2.7834   74.0265   78.6630 C   0  0  0  0  0  0  0  0  0  0  0  0
   -3.8961   74.1552   77.7936 C   0  0  0  0  0  0  0  0  0  0  0  0
   -4.1246   75.3254   77.1746 C   0  0  0  0  0  0  0  0  0  0  0  0
   -3.2587   76.4854   77.3651 C   0  0  0  0  0  0  0  0  0  0  0  0
   -3.7508   78.0178   76.4096 Br  0  0  0  0  0  0  0  0  0  0  0  0
   -2.1886   76.3907   78.1915 C   0  0  0  0  0  0  0  0  0  0  0  0
   -1.2215   77.5115   78.4693 C   0  0  0  0  0  0  0  0  0  0  0  0
   -1.9659   75.1480   78.8366 N   0  0  0  0  0  0  0  0  0  0  0  0
   -0.9772   74.7515   79.7221 C   0  0  0  0  0  0  0  0  0  0  0  0
    0.0479   75.4813   80.2044 N   0  0  0  0  0  0  0  0  0  0  0  0
    0.3036   71.4560   81.8996 H   0  0  0  0  0  0  0  0  0  0  0  0
    5.9502   75.8006   80.6433 S   0  0  0  0  0  0  0  0  0  0  0  0
    6.4135   77.1143   80.2502 O   0  0  0  0  0  0  0  0  0  0  0  0
    6.7636   74.9438   81.4785 O   0  0  0  0  0  0  0  0  0  0  0  0
    5.5279   74.9387   79.2396 N   0  0  0  0  0  0  0  0  0  0  0  0
    6.0548   73.5440   79.1077 C   0  0  0  0  0  0  0  0  0  0  0  0
    7.4979   73.5017   78.5632 C   0  0  0  0  0  0  0  0  0  0  0  0
    7.6513   74.2499   77.2992 N   0  0  0  0  0  0  0  0  0  0  0  0
    9.0460   74.2344   76.8598 C   0  0  0  0  0  0  0  0  0  0  0  0
    7.1804   75.6390   77.4779 C   0  0  0  0  0  0  0  0  0  0  0  0
    5.7190   75.6884   77.9594 C   0  0  0  0  0  0  0  0  0  0  0  0
    0.6780   76.6277   83.2462 O   0  0  0  0  0  0  0  0  0  0  0  0
   -0.9262   78.4205   83.6948 C   0  0  0  0  0  0  0  0  0  0  0  0
    0.4900   77.8986   83.8769 C   0  0  0  0  0  0  0  0  0  0  0  0
 35 36  1  0  0  0
 36 34  1  0  0  0
 34  1  1  0  0  0
  1  2  1  0  0  0
  2  3  2  0  0  0
  3  4  1  0  0  0
  4 24  1  0  0  0
 24 25  2  0  0  0
 24 26  2  0  0  0
 24 27  1  0  0  0
 27 28  1  0  0  0
 28 29  1  0  0  0
 29 30  1  0  0  0
 30 31  1  0  0  0
 30 32  1  0  0  0
 32 33  1  0  0  0
  4  5  2  0  0  0
  5  6  1  0  0  0
  6  7  1  0  0  0
  7  8  2  0  0  0
  8  9  1  0  0  0
  9 10  1  0  0  0
  9 11  2  0  0  0
 11 12  1  0  0  0
 12 13  2  0  0  0
 13 14  1  0  0  0
 14 15  2  0  0  0
 15 16  1  0  0  0
 16 17  1  0  0  0
 16 18  2  0  0  0
 18 19  1  0  0  0
 18 20  1  0  0  0
 20 21  1  0  0  0
 21 22  2  0  0  0
  6  1  2  0  0  0
 22  7  1  0  0  0
 33 27  1  0  0  0
 21 11  1  0  0  0
 20 13  1  0  0  0
 10 23  1  0  0  0
M  END
> <minimizedAffinity>
-1.36500

$$$$



 36 40  0  0  0  0  0  0  0  0999 V2000
    2.2270   74.4775   81.4656 C   0  0  0  0  0  0  0  0  0  0  0  0
    1.2505   73.5891   81.9430 C   0  0  0  0  0  0  0  0  0  0  0  0
    1.4355   72.2107   81.8403 C   0  0  0  0  0  0  0  0  0  0  0  0
    2.6123   71.7198   81.2801 C   0  0  0  0  0  0  0  0  0  0  0  0
    3.5967   72.5931   80.8112 C   0  0  0  0  0  0  0  0  0  0  0  0
    3.4290   73.9913   80.9036 C   0  0  0  0  0  0  0  0  0  0  0  0
    4.5083   74.8737   80.4255 C   0  0  0  0  0  0  0  0  0  0  0  0
    4.7235   74.9377   79.0919 N   0  0  0  0  0  0  0  0  0  0  0  0
    5.7253   75.7188   78.6606 C   0  0  0  0  0  0  0  0  0  0  0  0
    5.8789   75.7541   77.3037 O   0  0  0  0  0  0  0  0  0  0  0  0
    6.5332   76.4210   79.5479 C   0  0  0  0  0  0  0  0  0  0  0  0
    7.6018   77.2665   79.3852 N   0  0  0  0  0  0  0  0  0  0  0  0
    7.9511   77.6126   80.6057 C   0  0  0  0  0  0  0  0  0  0  0  0
    8.9924   78.4686   81.0457 C   0  0  0  0  0  0  0  0  0  0  0  0
    9.1706   78.6775   82.3608 C   0  0  0  0  0  0  0  0  0  0  0  0
    8.3217   78.0478   83.3680 C   0  0  0  0  0  0  0  0  0  0  0  0
    8.7387   78.4685   85.1435 Br  0  0  0  0  0  0  0  0  0  0  0  0
    7.3181   77.2258   82.9754 C   0  0  0  0  0  0  0  0  0  0  0  0
    6.3775   76.5168   83.9141 C   0  0  0  0  0  0  0  0  0  0  0  0
    7.1455   77.0198   81.5833 N   0  0  0  0  0  0  0  0  0  0  0  0
    6.2252   76.2521   80.8886 C   0  0  0  0  0  0  0  0  0  0  0  0
    5.2324   75.4903   81.3885 N   0  0  0  0  0  0  0  0  0  0  0  0
    5.1558   75.1663   77.0260 H   0  0  0  0  0  0  0  0  0  0  0  0
    2.8497   69.9631   81.1690 S   0  0  0  0  0  0  0  0  0  0  0  0
    2.8462   69.6274   79.7611 O   0  0  0  0  0  0  0  0  0  0  0  0
    3.9642   69.6012   82.0176 O   0  0  0  0  0  0  0  0  0  0  0  0
    1.4230   69.3571   81.8682 N   0  0  0  0  0  0  0  0  0  0  0  0
    1.5550   68.1801   82.7834 C   0  0  0  0  0  0  0  0  0  0  0  0
    1.6180   66.8390   82.0231 C   0  0  0  0  0  0  0  0  0  0  0  0
    0.4888   66.6614   81.0880 N   0  0  0  0  0  0  0  0  0  0  0  0
    0.6287   65.4086   80.3466 C   0  0  0  0  0  0  0  0  0  0  0  0
    0.4219   67.8081   80.1585 C   0  0  0  0  0  0  0  0  0  0  0  0
    0.2935   69.1452   80.9106 C   0  0  0  0  0  0  0  0  0  0  0  0
    2.0954   75.8346   81.6289 O   0  0  0  0  0  0  0  0  0  0  0  0
    0.7388   77.8266   82.0541 C   0  0  0  0  0  0  0  0  0  0  0  0
    0.8016   76.3081   82.0166 C   0  0  0  0  0  0  0  0  0  0  0  0
 35 36  1  0  0  0
 36 34  1  0  0  0
 34  1  1  0  0  0
  1  2  1  0  0  0
  2  3  2  0  0  0
  3  4  1  0  0  0
  4 24  1  0  0  0
 24 25  2  0  0  0
 24 26  2  0  0  0
 24 27  1  0  0  0
 27 28  1  0  0  0
 28 29  1  0  0  0
 29 30  1  0  0  0
 30 31  1  0  0  0
 30 32  1  0  0  0
 32 33  1  0  0  0
  4  5  2  0  0  0
  5  6  1  0  0  0
  6  7  1  0  0  0
  7  8  2  0  0  0
  8  9  1  0  0  0
  9 10  1  0  0  0
  9 11  2  0  0  0
 11 12  1  0  0  0
 12 13  2  0  0  0
 13 14  1  0  0  0
 14 15  2  0  0  0
 15 16  1  0  0  0
 16 17  1  0  0  0
 16 18  2  0  0  0
 18 19  1  0  0  0
 18 20  1  0  0  0
 20 21  1  0  0  0
 21 22  2  0  0  0
  6  1  2  0  0  0
 22  7  1  0  0  0
 33 27  1  0  0  0
 21 11  1  0  0  0
 20 13  1  0  0  0
 10 23  1  0  0  0
M  END
> <minimizedAffinity>
-1.33613

$$$$



 36 40  0  0  0  0  0  0  0  0999 V2000
    3.5980   74.2554   80.8077 C   0  0  0  0  0  0  0  0  0  0  0  0
    4.4067   73.1309   80.5792 C   0  0  0  0  0  0  0  0  0  0  0  0
    3.9393   71.8503   80.8730 C   0  0  0  0  0  0  0  0  0  0  0  0
    2.6495   71.6928   81.3743 C   0  0  0  0  0  0  0  0  0  0  0  0
    1.8306   72.8027   81.5959 C   0  0  0  0  0  0  0  0  0  0  0  0
    2.2845   74.1075   81.3073 C   0  0  0  0  0  0  0  0  0  0  0  0
    1.3741   75.2456   81.5266 C   0  0  0  0  0  0  0  0  0  0  0  0
    1.5259   75.9619   82.6635 N   0  0  0  0  0  0  0  0  0  0  0  0
    0.6775   76.9793   82.8753 C   0  0  0  0  0  0  0  0  0  0  0  0
    0.8949   77.6735   84.0315 O   0  0  0  0  0  0  0  0  0  0  0  0
   -0.3390   77.2775   81.9749 C   0  0  0  0  0  0  0  0  0  0  0  0
   -1.3240   78.2326   81.9453 N   0  0  0  0  0  0  0  0  0  0  0  0
   -1.9888   78.0019   80.8334 C   0  0  0  0  0  0  0  0  0  0  0  0
   -3.1097   78.6769   80.2870 C   0  0  0  0  0  0  0  0  0  0  0  0
   -3.6352   78.2593   79.1233 C   0  0  0  0  0  0  0  0  0  0  0  0
   -3.0890   77.1210   78.3900 C   0  0  0  0  0  0  0  0  0  0  0  0
   -3.9684   76.7013   76.7919 Br  0  0  0  0  0  0  0  0  0  0  0  0
   -2.0172   76.4581   78.8888 C   0  0  0  0  0  0  0  0  0  0  0  0
   -1.3643   75.2712   78.2305 C   0  0  0  0  0  0  0  0  0  0  0  0
   -1.4763   76.9155   80.1170 N   0  0  0  0  0  0  0  0  0  0  0  0
   -0.4034   76.4542   80.8618 C   0  0  0  0  0  0  0  0  0  0  0  0
    0.4178   75.4222   80.5852 N   0  0  0  0  0  0  0  0  0  0  0  0
    1.6658   77.1973   84.3844 H   0  0  0  0  0  0  0  0  0  0  0  0
    2.0536   70.0576   81.7290 S   0  0  0  0  0  0  0  0  0  0  0  0
    3.2059   69.2608   82.0925 O   0  0  0  0  0  0  0  0  0  0  0  0
    0.9174   70.1715   82.6174 O   0  0  0  0  0  0  0  0  0  0  0  0
    1.4975   69.5343   80.2097 N   0  0  0  0  0  0  0  0  0  0  0  0
    0.0305   69.2718   80.0705 C   0  0  0  0  0  0  0  0  0  0  0  0
   -0.3742   67.8710   80.5752 C   0  0  0  0  0  0  0  0  0  0  0  0
    0.4203   66.7913   79.9555 N   0  0  0  0  0  0  0  0  0  0  0  0
    0.0445   65.4928   80.5134 C   0  0  0  0  0  0  0  0  0  0  0  0
    1.8610   67.0462   80.1627 C   0  0  0  0  0  0  0  0  0  0  0  0
    2.2842   68.4163   79.6025 C   0  0  0  0  0  0  0  0  0  0  0  0
    4.0135   75.5150   80.4520 O   0  0  0  0  0  0  0  0  0  0  0  0
    6.3270   76.2745   80.2065 C   0  0  0  0  0  0  0  0  0  0  0  0
    5.1319   75.5904   79.5622 C   0  0  0  0  0  0  0  0  0  0  0  0
 35 36  1  0  0  0
 36 34  1  0  0  0
 34  1  1  0  0  0
  1  2  1  0  0  0
  2  3  2  0  0  0
  3  4  1  0  0  0
  4 24  1  0  0  0
 24 25  2  0  0  0
 24 26  2  0  0  0
 24 27  1  0  0  0
 27 28  1  0  0  0
 28 29  1  0  0  0
 29 30  1  0  0  0
 30 31  1  0  0  0
 30 32  1  0  0  0
 32 33  1  0  0  0
  4  5  2  0  0  0
  5  6  1  0  0  0
  6  7  1  0  0  0
  7  8  2  0  0  0
  8  9  1  0  0  0
  9 10  1  0  0  0
  9 11  2  0  0  0
 11 12  1  0  0  0
 12 13  2  0  0  0
 13 14  1  0  0  0
 14 15  2  0  0  0
 15 16  1  0  0  0
 16 17  1  0  0  0
 16 18  2  0  0  0
 18 19  1  0  0  0
 18 20  1  0  0  0
 20 21  1  0  0  0
 21 22  2  0  0  0
  6  1  2  0  0  0
 22  7  1  0  0  0
 33 27  1  0  0  0
 21 11  1  0  0  0
 20 13  1  0  0  0
 10 23  1  0  0  0
M  END
> <minimizedAffinity>
-1.31612

$$$$



 36 40  0  0  0  0  0  0  0  0999 V2000
    2.0003   74.6400   81.2477 C   0  0  0  0  0  0  0  0  0  0  0  0
    0.8638   73.9246   81.6565 C   0  0  0  0  0  0  0  0  0  0  0  0
    0.9025   72.5349   81.7659 C   0  0  0  0  0  0  0  0  0  0  0  0
    2.0894   71.8613   81.4886 C   0  0  0  0  0  0  0  0  0  0  0  0
    3.2306   72.5623   81.0915 C   0  0  0  0  0  0  0  0  0  0  0  0
    3.2128   73.9684   80.9725 C   0  0  0  0  0  0  0  0  0  0  0  0
    4.4496   74.6683   80.5818 C   0  0  0  0  0  0  0  0  0  0  0  0
    4.9018   74.4883   79.3201 N   0  0  0  0  0  0  0  0  0  0  0  0
    6.0435   75.1027   78.9752 C   0  0  0  0  0  0  0  0  0  0  0  0
    6.4364   74.8955   77.6835 O   0  0  0  0  0  0  0  0  0  0  0  0
    6.7546   75.8784   79.8839 C   0  0  0  0  0  0  0  0  0  0  0  0
    7.9213   76.5964   79.8025 N   0  0  0  0  0  0  0  0  0  0  0  0
    8.0861   77.1153   81.0005 C   0  0  0  0  0  0  0  0  0  0  0  0
    9.1212   77.9477   81.4968 C   0  0  0  0  0  0  0  0  0  0  0  0
    9.0869   78.3614   82.7744 C   0  0  0  0  0  0  0  0  0  0  0  0
    8.0101   77.9810   83.6840 C   0  0  0  0  0  0  0  0  0  0  0  0
    8.1516   78.6617   85.4218 Br  0  0  0  0  0  0  0  0  0  0  0  0
    7.0073   77.1869   83.2358 C   0  0  0  0  0  0  0  0  0  0  0  0
    5.8442   76.7243   84.0734 C   0  0  0  0  0  0  0  0  0  0  0  0
    7.0609   76.7625   81.8841 N   0  0  0  0  0  0  0  0  0  0  0  0
    6.1987   75.9641   81.1506 C   0  0  0  0  0  0  0  0  0  0  0  0
    5.0560   75.3794   81.5607 N   0  0  0  0  0  0  0  0  0  0  0  0
    5.7135   74.3286   77.3648 H   0  0  0  0  0  0  0  0  0  0  0  0
    2.1372   70.0929   81.6476 S   0  0  0  0  0  0  0  0  0  0  0  0
    3.5309   69.7051   81.6035 O   0  0  0  0  0  0  0  0  0  0  0  0
    1.2943   69.7144   82.7610 O   0  0  0  0  0  0  0  0  0  0  0  0
    1.3912   69.5769   80.2093 N   0  0  0  0  0  0  0  0  0  0  0  0
   -0.0717   69.2663   80.2696 C   0  0  0  0  0  0  0  0  0  0  0  0
   -0.3572   67.8439   80.7949 C   0  0  0  0  0  0  0  0  0  0  0  0
    0.3770   66.8032   80.0473 N   0  0  0  0  0  0  0  0  0  0  0  0
    0.1243   65.4830   80.6234 C   0  0  0  0  0  0  0  0  0  0  0  0
    1.8236   67.1040   80.0577 C   0  0  0  0  0  0  0  0  0  0  0  0
    2.1206   68.4974   79.4742 C   0  0  0  0  0  0  0  0  0  0  0  0
    2.0017   76.0128   81.2096 O   0  0  0  0  0  0  0  0  0  0  0  0
    0.6790   77.9538   81.8965 C   0  0  0  0  0  0  0  0  0  0  0  0
    1.3968   76.6825   82.3204 C   0  0  0  0  0  0  0  0  0  0  0  0
 35 36  1  0  0  0
 36 34  1  0  0  0
 34  1  1  0  0  0
  1  2  1  0  0  0
  2  3  2  0  0  0
  3  4  1  0  0  0
  4 24  1  0  0  0
 24 25  2  0  0  0
 24 26  2  0  0  0
 24 27  1  0  0  0
 27 28  1  0  0  0
 28 29  1  0  0  0
 29 30  1  0  0  0
 30 31  1  0  0  0
 30 32  1  0  0  0
 32 33  1  0  0  0
  4  5  2  0  0  0
  5  6  1  0  0  0
  6  7  1  0  0  0
  7  8  2  0  0  0
  8  9  1  0  0  0
  9 10  1  0  0  0
  9 11  2  0  0  0
 11 12  1  0  0  0
 12 13  2  0  0  0
 13 14  1  0  0  0
 14 15  2  0  0  0
 15 16  1  0  0  0
 16 17  1  0  0  0
 16 18  2  0  0  0
 18 19  1  0  0  0
 18 20  1  0  0  0
 20 21  1  0  0  0
 21 22  2  0  0  0
  6  1  2  0  0  0
 22  7  1  0  0  0
 33 27  1  0  0  0
 21 11  1  0  0  0
 20 13  1  0  0  0
 10 23  1  0  0  0
M  END
> <minimizedAffinity>
-1.31163

$$$$



 36 40  0  0  0  0  0  0  0  0999 V2000
    1.9848   73.5583   81.6545 C   0  0  0  0  0  0  0  0  0  0  0  0
    0.5921   73.4095   81.7491 C   0  0  0  0  0  0  0  0  0  0  0  0
   -0.2619   74.3306   81.1435 C   0  0  0  0  0  0  0  0  0  0  0  0
    0.2797   75.3906   80.4205 C   0  0  0  0  0  0  0  0  0  0  0  0
    1.6637   75.5440   80.3095 C   0  0  0  0  0  0  0  0  0  0  0  0
    2.5459   74.6245   80.9161 C   0  0  0  0  0  0  0  0  0  0  0  0
    3.9982   74.8081   80.7450 C   0  0  0  0  0  0  0  0  0  0  0  0
    4.5928   74.1809   79.7048 N   0  0  0  0  0  0  0  0  0  0  0  0
    5.9195   74.3254   79.5677 C   0  0  0  0  0  0  0  0  0  0  0  0
    6.4559   73.6825   78.4884 O   0  0  0  0  0  0  0  0  0  0  0  0
    6.6667   75.0713   80.4723 C   0  0  0  0  0  0  0  0  0  0  0  0
    8.0018   75.3729   80.5720 N   0  0  0  0  0  0  0  0  0  0  0  0
    8.1032   76.1164   81.6529 C   0  0  0  0  0  0  0  0  0  0  0  0
    9.2464   76.7127   82.2428 C   0  0  0  0  0  0  0  0  0  0  0  0
    9.1135   77.4381   83.3658 C   0  0  0  0  0  0  0  0  0  0  0  0
    7.8191   77.6381   84.0110 C   0  0  0  0  0  0  0  0  0  0  0  0
    7.8518   78.6788   85.5663 Br  0  0  0  0  0  0  0  0  0  0  0  0
    6.7096   77.0804   83.4679 C   0  0  0  0  0  0  0  0  0  0  0  0
    5.3213   77.2109   84.0373 C   0  0  0  0  0  0  0  0  0  0  0  0
    6.8708   76.3202   82.2820 N   0  0  0  0  0  0  0  0  0  0  0  0
    5.9435   75.6430   81.5073 C   0  0  0  0  0  0  0  0  0  0  0  0
    4.6136   75.5433   81.7003 N   0  0  0  0  0  0  0  0  0  0  0  0
    5.6571   73.2867   78.1002 H   0  0  0  0  0  0  0  0  0  0  0  0
   -0.8136   76.5500   79.6361 S   0  0  0  0  0  0  0  0  0  0  0  0
   -1.8069   76.9224   80.6207 O   0  0  0  0  0  0  0  0  0  0  0  0
   -0.0103   77.5541   78.9729 O   0  0  0  0  0  0  0  0  0  0  0  0
   -1.5676   75.5946   78.4486 N   0  0  0  0  0  0  0  0  0  0  0  0
   -1.3639   75.9907   77.0197 C   0  0  0  0  0  0  0  0  0  0  0  0
   -2.3260   77.1098   76.5691 C   0  0  0  0  0  0  0  0  0  0  0  0
   -3.7418   76.7838   76.8339 N   0  0  0  0  0  0  0  0  0  0  0  0
   -4.6057   77.8996   76.4501 C   0  0  0  0  0  0  0  0  0  0  0  0
   -3.9228   76.4572   78.2635 C   0  0  0  0  0  0  0  0  0  0  0  0
   -3.0113   75.2971   78.7034 C   0  0  0  0  0  0  0  0  0  0  0  0
    2.8383   72.6189   82.1787 O   0  0  0  0  0  0  0  0  0  0  0  0
    2.3120   70.2327   82.3138 C   0  0  0  0  0  0  0  0  0  0  0  0
    2.9066   71.3651   81.4919 C   0  0  0  0  0  0  0  0  0  0  0  0
 35 36  1  0  0  0
 36 34  1  0  0  0
 34  1  1  0  0  0
  1  2  1  0  0  0
  2  3  2  0  0  0
  3  4  1  0  0  0
  4 24  1  0  0  0
 24 25  2  0  0  0
 24 26  2  0  0  0
 24 27  1  0  0  0
 27 28  1  0  0  0
 28 29  1  0  0  0
 29 30  1  0  0  0
 30 31  1  0  0  0
 30 32  1  0  0  0
 32 33  1  0  0  0
  4  5  2  0  0  0
  5  6  1  0  0  0
  6  7  1  0  0  0
  7  8  2  0  0  0
  8  9  1  0  0  0
  9 10  1  0  0  0
  9 11  2  0  0  0
 11 12  1  0  0  0
 12 13  2  0  0  0
 13 14  1  0  0  0
 14 15  2  0  0  0
 15 16  1  0  0  0
 16 17  1  0  0  0
 16 18  2  0  0  0
 18 19  1  0  0  0
 18 20  1  0  0  0
 20 21  1  0  0  0
 21 22  2  0  0  0
  6  1  2  0  0  0
 22  7  1  0  0  0
 33 27  1  0  0  0
 21 11  1  0  0  0
 20 13  1  0  0  0
 10 23  1  0  0  0
M  END
> <minimizedAffinity>
-1.25723

$$$$



 36 40  0  0  0  0  0  0  0  0999 V2000
    1.0797   73.9544   81.4832 C   0  0  0  0  0  0  0  0  0  0  0  0
    0.0993   72.9890   81.2054 C   0  0  0  0  0  0  0  0  0  0  0  0
    0.4404   71.6405   81.1062 C   0  0  0  0  0  0  0  0  0  0  0  0
    1.7630   71.2543   81.3096 C   0  0  0  0  0  0  0  0  0  0  0  0
    2.7463   72.2038   81.5976 C   0  0  0  0  0  0  0  0  0  0  0  0
    2.4232   73.5737   81.7006 C   0  0  0  0  0  0  0  0  0  0  0  0
    3.4875   74.5357   82.0381 C   0  0  0  0  0  0  0  0  0  0  0  0
    3.3777   75.2107   83.2048 N   0  0  0  0  0  0  0  0  0  0  0  0
    4.3322   76.1072   83.4965 C   0  0  0  0  0  0  0  0  0  0  0  0
    4.1731   76.7415   84.6959 O   0  0  0  0  0  0  0  0  0  0  0  0
    5.3862   76.3565   82.6248 C   0  0  0  0  0  0  0  0  0  0  0  0
    6.4680   77.1998   82.6681 N   0  0  0  0  0  0  0  0  0  0  0  0
    7.1102   76.9881   81.5392 C   0  0  0  0  0  0  0  0  0  0  0  0
    8.2993   77.5810   81.0442 C   0  0  0  0  0  0  0  0  0  0  0  0
    8.7786   77.2092   79.8455 C   0  0  0  0  0  0  0  0  0  0  0  0
    8.1125   76.2047   79.0216 C   0  0  0  0  0  0  0  0  0  0  0  0
    8.9420   75.8322   77.3857 Br  0  0  0  0  0  0  0  0  0  0  0  0
    6.9747   75.6209   79.4709 C   0  0  0  0  0  0  0  0  0  0  0  0
    6.1949   74.5761   78.7167 C   0  0  0  0  0  0  0  0  0  0  0  0
    6.4863   76.0257   80.7388 N   0  0  0  0  0  0  0  0  0  0  0  0
    5.3713   75.6175   81.4523 C   0  0  0  0  0  0  0  0  0  0  0  0
    4.4496   74.6997   81.1004 N   0  0  0  0  0  0  0  0  0  0  0  0
    3.3584   76.3181   85.0160 H   0  0  0  0  0  0  0  0  0  0  0  0
    2.1876   69.5332   81.2000 S   0  0  0  0  0  0  0  0  0  0  0  0
    1.3323   68.9537   80.1864 O   0  0  0  0  0  0  0  0  0  0  0  0
    3.6275   69.4259   81.1089 O   0  0  0  0  0  0  0  0  0  0  0  0
    1.6995   68.9396   82.7169 N   0  0  0  0  0  0  0  0  0  0  0  0
    2.4968   69.3679   83.9090 C   0  0  0  0  0  0  0  0  0  0  0  0
    3.7684   68.5178   84.1115 C   0  0  0  0  0  0  0  0  0  0  0  0
    3.4836   67.0693   84.1549 N   0  0  0  0  0  0  0  0  0  0  0  0
    4.7244   66.3060   84.2825 C   0  0  0  0  0  0  0  0  0  0  0  0
    2.7504   66.6653   82.9373 C   0  0  0  0  0  0  0  0  0  0  0  0
    1.4468   67.4660   82.7644 C   0  0  0  0  0  0  0  0  0  0  0  0
    0.7481   75.2752   81.6606 O   0  0  0  0  0  0  0  0  0  0  0  0
    0.1618   77.4297   80.6590 C   0  0  0  0  0  0  0  0  0  0  0  0
    0.0711   75.9145   80.5738 C   0  0  0  0  0  0  0  0  0  0  0  0
 35 36  1  0  0  0
 36 34  1  0  0  0
 34  1  1  0  0  0
  1  2  1  0  0  0
  2  3  2  0  0  0
  3  4  1  0  0  0
  4 24  1  0  0  0
 24 25  2  0  0  0
 24 26  2  0  0  0
 24 27  1  0  0  0
 27 28  1  0  0  0
 28 29  1  0  0  0
 29 30  1  0  0  0
 30 31  1  0  0  0
 30 32  1  0  0  0
 32 33  1  0  0  0
  4  5  2  0  0  0
  5  6  1  0  0  0
  6  7  1  0  0  0
  7  8  2  0  0  0
  8  9  1  0  0  0
  9 10  1  0  0  0
  9 11  2  0  0  0
 11 12  1  0  0  0
 12 13  2  0  0  0
 13 14  1  0  0  0
 14 15  2  0  0  0
 15 16  1  0  0  0
 16 17  1  0  0  0
 16 18  2  0  0  0
 18 19  1  0  0  0
 18 20  1  0  0  0
 20 21  1  0  0  0
 21 22  2  0  0  0
  6  1  2  0  0  0
 22  7  1  0  0  0
 33 27  1  0  0  0
 21 11  1  0  0  0
 20 13  1  0  0  0
 10 23  1  0  0  0
M  END
> <minimizedAffinity>
-1.25611

$$$$



 36 40  0  0  0  0  0  0  0  0999 V2000
    4.5946   75.1646   80.7552 C   0  0  0  0  0  0  0  0  0  0  0  0
    5.4068   74.2590   80.0546 C   0  0  0  0  0  0  0  0  0  0  0  0
    5.1262   72.8932   80.0748 C   0  0  0  0  0  0  0  0  0  0  0  0
    4.0152   72.4349   80.7786 C   0  0  0  0  0  0  0  0  0  0  0  0
    3.1926   73.3269   81.4709 C   0  0  0  0  0  0  0  0  0  0  0  0
    3.4594   74.7127   81.4652 C   0  0  0  0  0  0  0  0  0  0  0  0
    2.5457   75.6193   82.1829 C   0  0  0  0  0  0  0  0  0  0  0  0
    2.8944   76.0040   83.4317 N   0  0  0  0  0  0  0  0  0  0  0  0
    2.0473   76.8057   84.0946 C   0  0  0  0  0  0  0  0  0  0  0  0
    2.4656   77.1723   85.3423 O   0  0  0  0  0  0  0  0  0  0  0  0
    0.8412   77.2110   83.5342 C   0  0  0  0  0  0  0  0  0  0  0  0
   -0.1874   78.0033   83.9786 N   0  0  0  0  0  0  0  0  0  0  0  0
   -1.0623   78.0088   82.9957 C   0  0  0  0  0  0  0  0  0  0  0  0
   -2.3175   78.6610   82.8988 C   0  0  0  0  0  0  0  0  0  0  0  0
   -3.0557   78.5206   81.7851 C   0  0  0  0  0  0  0  0  0  0  0  0
   -2.6088   77.7106   80.6556 C   0  0  0  0  0  0  0  0  0  0  0  0
   -3.7862   77.6443   79.2021 Br  0  0  0  0  0  0  0  0  0  0  0  0
   -1.4124   77.0770   80.7209 C   0  0  0  0  0  0  0  0  0  0  0  0
   -0.8420   76.2133   79.6267 C   0  0  0  0  0  0  0  0  0  0  0  0
   -0.6479   77.2392   81.9038 N   0  0  0  0  0  0  0  0  0  0  0  0
    0.5899   76.7291   82.2592 C   0  0  0  0  0  0  0  0  0  0  0  0
    1.3974   75.9281   81.5365 N   0  0  0  0  0  0  0  0  0  0  0  0
    3.3247   76.7187   85.3839 H   0  0  0  0  0  0  0  0  0  0  0  0
    3.6529   70.6962   80.7851 S   0  0  0  0  0  0  0  0  0  0  0  0
    3.4872   70.2968   79.4039 O   0  0  0  0  0  0  0  0  0  0  0  0
    4.6146   70.0354   81.6406 O   0  0  0  0  0  0  0  0  0  0  0  0
    2.1324   70.6431   81.5447 N   0  0  0  0  0  0  0  0  0  0  0  0
    2.0127   69.8067   82.7802 C   0  0  0  0  0  0  0  0  0  0  0  0
    1.7831   68.3132   82.4682 C   0  0  0  0  0  0  0  0  0  0  0  0
    0.6382   68.0905   81.5623 N   0  0  0  0  0  0  0  0  0  0  0  0
    0.5029   66.6691   81.2462 C   0  0  0  0  0  0  0  0  0  0  0  0
    0.8149   68.8810   80.3265 C   0  0  0  0  0  0  0  0  0  0  0  0
    0.9797   70.3817   80.6279 C   0  0  0  0  0  0  0  0  0  0  0  0
    4.8114   76.5187   80.6824 O   0  0  0  0  0  0  0  0  0  0  0  0
    6.2767   78.2410   81.6181 C   0  0  0  0  0  0  0  0  0  0  0  0
    6.1679   76.9557   80.8136 C   0  0  0  0  0  0  0  0  0  0  0  0
 35 36  1  0  0  0
 36 34  1  0  0  0
 34  1  1  0  0  0
  1  2  1  0  0  0
  2  3  2  0  0  0
  3  4  1  0  0  0
  4 24  1  0  0  0
 24 25  2  0  0  0
 24 26  2  0  0  0
 24 27  1  0  0  0
 27 28  1  0  0  0
 28 29  1  0  0  0
 29 30  1  0  0  0
 30 31  1  0  0  0
 30 32  1  0  0  0
 32 33  1  0  0  0
  4  5  2  0  0  0
  5  6  1  0  0  0
  6  7  1  0  0  0
  7  8  2  0  0  0
  8  9  1  0  0  0
  9 10  1  0  0  0
  9 11  2  0  0  0
 11 12  1  0  0  0
 12 13  2  0  0  0
 13 14  1  0  0  0
 14 15  2  0  0  0
 15 16  1  0  0  0
 16 17  1  0  0  0
 16 18  2  0  0  0
 18 19  1  0  0  0
 18 20  1  0  0  0
 20 21  1  0  0  0
 21 22  2  0  0  0
  6  1  2  0  0  0
 22  7  1  0  0  0
 33 27  1  0  0  0
 21 11  1  0  0  0
 20 13  1  0  0  0
 10 23  1  0  0  0
M  END
> <minimizedAffinity>
-1.25380

$$$$
