


 36 40  0  0  0  0  0  0  0  0999 V2000
    1.6534   66.3626   80.5959 C   0  0  0  0  0  0  0  0  0  0  0  0
    1.6741   66.5066   79.1996 C   0  0  0  0  0  0  0  0  0  0  0  0
    1.0251   65.5828   78.3790 C   0  0  0  0  0  0  0  0  0  0  0  0
    0.3523   64.5074   78.9539 C   0  0  0  0  0  0  0  0  0  0  0  0
    0.3269   64.3440   80.3398 C   0  0  0  0  0  0  0  0  0  0  0  0
    0.9637   65.2758   81.1869 C   0  0  0  0  0  0  0  0  0  0  0  0
    0.8914   65.0815   82.6456 C   0  0  0  0  0  0  0  0  0  0  0  0
    1.8862   65.6472   83.3725 N   0  0  0  0  0  0  0  0  0  0  0  0
    1.8649   65.4619   84.7021 C   0  0  0  0  0  0  0  0  0  0  0  0
    2.8841   66.0672   85.3815 O   0  0  0  0  0  0  0  0  0  0  0  0
    0.8720   64.7044   85.3140 C   0  0  0  0  0  0  0  0  0  0  0  0
    0.6150   64.3608   86.6195 N   0  0  0  0  0  0  0  0  0  0  0  0
   -0.4738   63.6216   86.5681 C   0  0  0  0  0  0  0  0  0  0  0  0
   -1.2041   62.9894   87.6122 C   0  0  0  0  0  0  0  0  0  0  0  0
   -2.3049   62.2741   87.3205 C   0  0  0  0  0  0  0  0  0  0  0  0
   -2.7756   62.1274   85.9543 C   0  0  0  0  0  0  0  0  0  0  0  0
   -2.1023   62.7156   84.9430 C   0  0  0  0  0  0  0  0  0  0  0  0
   -2.5473   62.5969   83.5164 C   0  0  0  0  0  0  0  0  0  0  0  0
   -0.9478   63.4627   85.2608 N   0  0  0  0  0  0  0  0  0  0  0  0
   -0.0709   64.1628   84.4540 C   0  0  0  0  0  0  0  0  0  0  0  0
   -0.1058   64.3016   83.1144 N   0  0  0  0  0  0  0  0  0  0  0  0
    3.3618   66.4993   84.6529 H   0  0  0  0  0  0  0  0  0  0  0  0
   -0.4579   63.3339   77.8961 S   0  0  0  0  0  0  0  0  0  0  0  0
   -1.4053   64.0732   77.0900 O   0  0  0  0  0  0  0  0  0  0  0  0
    0.5462   62.4830   77.2938 O   0  0  0  0  0  0  0  0  0  0  0  0
   -1.3316   62.3847   79.0097 N   0  0  0  0  0  0  0  0  0  0  0  0
   -0.8335   60.9837   79.2070 C   0  0  0  0  0  0  0  0  0  0  0  0
   -1.7782   59.9405   78.5829 C   0  0  0  0  0  0  0  0  0  0  0  0
   -3.1601   59.9686   79.1100 N   0  0  0  0  0  0  0  0  0  0  0  0
   -3.5310   61.3272   79.5644 C   0  0  0  0  0  0  0  0  0  0  0  0
   -2.8137   62.4464   78.7880 C   0  0  0  0  0  0  0  0  0  0  0  0
   -3.3661   58.9564   80.1543 C   0  0  0  0  0  0  0  0  0  0  0  0
   -3.0676   59.4792   81.5559 C   0  0  0  0  0  0  0  0  0  0  0  0
    2.3015   67.2133   81.4563 O   0  0  0  0  0  0  0  0  0  0  0  0
    0.8942   69.1149   81.7185 C   0  0  0  0  0  0  0  0  0  0  0  0
    2.2325   68.6145   81.2054 C   0  0  0  0  0  0  0  0  0  0  0  0
 35 36  1  0  0  0
 36 34  1  0  0  0
 34  1  1  0  0  0
  1  2  1  0  0  0
  2  3  2  0  0  0
  3  4  1  0  0  0
  4 23  1  0  0  0
 23 24  2  0  0  0
 23 25  2  0  0  0
 23 26  1  0  0  0
 26 27  1  0  0  0
 27 28  1  0  0  0
 28 29  1  0  0  0
 29 32  1  0  0  0
 32 33  1  0  0  0
 29 30  1  0  0  0
 30 31  1  0  0  0
  4  5  2  0  0  0
  5  6  1  0  0  0
  6  7  1  0  0  0
  7  8  2  0  0  0
  8  9  1  0  0  0
  9 10  1  0  0  0
  9 11  2  0  0  0
 11 12  1  0  0  0
 12 13  2  0  0  0
 13 14  1  0  0  0
 14 15  2  0  0  0
 15 16  1  0  0  0
 16 17  2  0  0  0
 17 18  1  0  0  0
 17 19  1  0  0  0
 19 20  1  0  0  0
 20 21  2  0  0  0
  6  1  2  0  0  0
 21  7  1  0  0  0
 31 26  1  0  0  0
 20 11  1  0  0  0
 19 13  1  0  0  0
 10 22  1  0  0  0
M  END
> <minimizedAffinity>
-10.49269

$$$$



 36 40  0  0  0  0  0  0  0  0999 V2000
    0.1636   63.9086   85.1007 C   0  0  0  0  0  0  0  0  0  0  0  0
   -0.5603   62.7058   85.1022 C   0  0  0  0  0  0  0  0  0  0  0  0
   -0.6496   61.9273   83.9472 C   0  0  0  0  0  0  0  0  0  0  0  0
   -0.0144   62.3513   82.7826 C   0  0  0  0  0  0  0  0  0  0  0  0
    0.7040   63.5478   82.7603 C   0  0  0  0  0  0  0  0  0  0  0  0
    0.8190   64.3408   83.9218 C   0  0  0  0  0  0  0  0  0  0  0  0
    1.6080   65.5838   83.8635 C   0  0  0  0  0  0  0  0  0  0  0  0
    2.6393   65.6769   84.7385 N   0  0  0  0  0  0  0  0  0  0  0  0
    3.3584   66.8108   84.7306 C   0  0  0  0  0  0  0  0  0  0  0  0
    4.3921   66.8400   85.6236 O   0  0  0  0  0  0  0  0  0  0  0  0
    3.0505   67.8602   83.8716 C   0  0  0  0  0  0  0  0  0  0  0  0
    3.6030   69.1002   83.6585 N   0  0  0  0  0  0  0  0  0  0  0  0
    2.8660   69.6420   82.7108 C   0  0  0  0  0  0  0  0  0  0  0  0
    2.9679   70.9146   82.0836 C   0  0  0  0  0  0  0  0  0  0  0  0
    2.0917   71.2592   81.1234 C   0  0  0  0  0  0  0  0  0  0  0  0
    1.0324   70.3588   80.7029 C   0  0  0  0  0  0  0  0  0  0  0  0
    0.9110   69.1451   81.2810 C   0  0  0  0  0  0  0  0  0  0  0  0
   -0.1629   68.1782   80.8819 C   0  0  0  0  0  0  0  0  0  0  0  0
    1.8353   68.7947   82.2883 N   0  0  0  0  0  0  0  0  0  0  0  0
    1.9581   67.6450   83.0455 C   0  0  0  0  0  0  0  0  0  0  0  0
    1.1900   66.5389   83.0059 N   0  0  0  0  0  0  0  0  0  0  0  0
    4.3098   65.9610   86.0314 H   0  0  0  0  0  0  0  0  0  0  0  0
   -0.1476   61.3563   81.3181 S   0  0  0  0  0  0  0  0  0  0  0  0
    1.1672   60.8128   81.0539 O   0  0  0  0  0  0  0  0  0  0  0  0
   -1.3086   60.5011   81.4435 O   0  0  0  0  0  0  0  0  0  0  0  0
   -0.4949   62.5181   80.1207 N   0  0  0  0  0  0  0  0  0  0  0  0
   -1.8879   62.4883   79.5653 C   0  0  0  0  0  0  0  0  0  0  0  0
   -1.9240   61.9542   78.1217 C   0  0  0  0  0  0  0  0  0  0  0  0
   -1.1090   62.7273   77.1592 N   0  0  0  0  0  0  0  0  0  0  0  0
    0.0448   63.3673   77.8292 C   0  0  0  0  0  0  0  0  0  0  0  0
    0.5539   62.5801   79.0504 C   0  0  0  0  0  0  0  0  0  0  0  0
   -1.9222   63.6923   76.4076 C   0  0  0  0  0  0  0  0  0  0  0  0
   -1.4158   65.1253   76.5382 C   0  0  0  0  0  0  0  0  0  0  0  0
    0.2596   64.7380   86.1902 O   0  0  0  0  0  0  0  0  0  0  0  0
    1.2035   63.6120   88.0626 C   0  0  0  0  0  0  0  0  0  0  0  0
   -0.0615   64.2108   87.4747 C   0  0  0  0  0  0  0  0  0  0  0  0
 35 36  1  0  0  0
 36 34  1  0  0  0
 34  1  1  0  0  0
  1  2  1  0  0  0
  2  3  2  0  0  0
  3  4  1  0  0  0
  4 23  1  0  0  0
 23 24  2  0  0  0
 23 25  2  0  0  0
 23 26  1  0  0  0
 26 27  1  0  0  0
 27 28  1  0  0  0
 28 29  1  0  0  0
 29 32  1  0  0  0
 32 33  1  0  0  0
 29 30  1  0  0  0
 30 31  1  0  0  0
  4  5  2  0  0  0
  5  6  1  0  0  0
  6  7  1  0  0  0
  7  8  2  0  0  0
  8  9  1  0  0  0
  9 10  1  0  0  0
  9 11  2  0  0  0
 11 12  1  0  0  0
 12 13  2  0  0  0
 13 14  1  0  0  0
 14 15  2  0  0  0
 15 16  1  0  0  0
 16 17  2  0  0  0
 17 18  1  0  0  0
 17 19  1  0  0  0
 19 20  1  0  0  0
 20 21  2  0  0  0
  6  1  2  0  0  0
 21  7  1  0  0  0
 31 26  1  0  0  0
 20 11  1  0  0  0
 19 13  1  0  0  0
 10 22  1  0  0  0
M  END
> <minimizedAffinity>
-10.30937

$$$$



 36 40  0  0  0  0  0  0  0  0999 V2000
   -0.2127   63.0305   85.4101 C   0  0  0  0  0  0  0  0  0  0  0  0
    0.4556   63.9214   86.2647 C   0  0  0  0  0  0  0  0  0  0  0  0
    1.0879   65.0569   85.7560 C   0  0  0  0  0  0  0  0  0  0  0  0
    1.0551   65.3052   84.3859 C   0  0  0  0  0  0  0  0  0  0  0  0
    0.4015   64.4271   83.5201 C   0  0  0  0  0  0  0  0  0  0  0  0
   -0.2568   63.2821   84.0170 C   0  0  0  0  0  0  0  0  0  0  0  0
   -0.9574   62.3942   83.0726 C   0  0  0  0  0  0  0  0  0  0  0  0
   -1.9136   61.5936   83.6044 N   0  0  0  0  0  0  0  0  0  0  0  0
   -2.5486   60.7510   82.7741 C   0  0  0  0  0  0  0  0  0  0  0  0
   -3.5104   59.9809   83.3647 O   0  0  0  0  0  0  0  0  0  0  0  0
   -2.2295   60.6852   81.4222 C   0  0  0  0  0  0  0  0  0  0  0  0
   -2.7060   59.9350   80.3741 N   0  0  0  0  0  0  0  0  0  0  0  0
   -2.0027   60.3239   79.3307 C   0  0  0  0  0  0  0  0  0  0  0  0
   -2.0585   59.8965   77.9752 C   0  0  0  0  0  0  0  0  0  0  0  0
   -1.2316   60.4434   77.0666 C   0  0  0  0  0  0  0  0  0  0  0  0
   -0.2723   61.4705   77.4336 C   0  0  0  0  0  0  0  0  0  0  0  0
   -0.1964   61.8952   78.7126 C   0  0  0  0  0  0  0  0  0  0  0  0
    0.7742   62.9537   79.1426 C   0  0  0  0  0  0  0  0  0  0  0  0
   -1.0682   61.3132   79.6577 N   0  0  0  0  0  0  0  0  0  0  0  0
   -1.2177   61.5400   81.0128 C   0  0  0  0  0  0  0  0  0  0  0  0
   -0.5353   62.4029   81.7903 N   0  0  0  0  0  0  0  0  0  0  0  0
   -3.4618   60.2958   84.2835 H   0  0  0  0  0  0  0  0  0  0  0  0
    1.8747   66.7473   83.7526 S   0  0  0  0  0  0  0  0  0  0  0  0
    1.5482   66.8368   82.3456 O   0  0  0  0  0  0  0  0  0  0  0  0
    1.6338   67.8515   84.6569 O   0  0  0  0  0  0  0  0  0  0  0  0
    3.5187   66.3208   83.8925 N   0  0  0  0  0  0  0  0  0  0  0  0
    3.8607   65.3975   85.0239 C   0  0  0  0  0  0  0  0  0  0  0  0
    4.6336   66.1168   86.1444 C   0  0  0  0  0  0  0  0  0  0  0  0
    5.9061   66.7365   85.7142 N   0  0  0  0  0  0  0  0  0  0  0  0
    5.8514   67.1357   84.2904 C   0  0  0  0  0  0  0  0  0  0  0  0
    4.4346   67.5061   83.8154 C   0  0  0  0  0  0  0  0  0  0  0  0
    7.0588   65.8744   86.0070 C   0  0  0  0  0  0  0  0  0  0  0  0
    8.0928   65.8634   84.8856 C   0  0  0  0  0  0  0  0  0  0  0  0
   -0.8217   61.8782   85.8407 O   0  0  0  0  0  0  0  0  0  0  0  0
   -2.7442   62.5831   87.0540 C   0  0  0  0  0  0  0  0  0  0  0  0
   -1.4090   61.8656   87.1391 C   0  0  0  0  0  0  0  0  0  0  0  0
 35 36  1  0  0  0
 36 34  1  0  0  0
 34  1  1  0  0  0
  1  2  1  0  0  0
  2  3  2  0  0  0
  3  4  1  0  0  0
  4 23  1  0  0  0
 23 24  2  0  0  0
 23 25  2  0  0  0
 23 26  1  0  0  0
 26 27  1  0  0  0
 27 28  1  0  0  0
 28 29  1  0  0  0
 29 32  1  0  0  0
 32 33  1  0  0  0
 29 30  1  0  0  0
 30 31  1  0  0  0
  4  5  2  0  0  0
  5  6  1  0  0  0
  6  7  1  0  0  0
  7  8  2  0  0  0
  8  9  1  0  0  0
  9 10  1  0  0  0
  9 11  2  0  0  0
 11 12  1  0  0  0
 12 13  2  0  0  0
 13 14  1  0  0  0
 14 15  2  0  0  0
 15 16  1  0  0  0
 16 17  2  0  0  0
 17 18  1  0  0  0
 17 19  1  0  0  0
 19 20  1  0  0  0
 20 21  2  0  0  0
  6  1  2  0  0  0
 21  7  1  0  0  0
 31 26  1  0  0  0
 20 11  1  0  0  0
 19 13  1  0  0  0
 10 22  1  0  0  0
M  END
> <minimizedAffinity>
-10.26891

$$$$



 36 40  0  0  0  0  0  0  0  0999 V2000
   -0.4532   63.6371   84.5495 C   0  0  0  0  0  0  0  0  0  0  0  0
    0.3371   64.5812   85.2238 C   0  0  0  0  0  0  0  0  0  0  0  0
    1.0948   65.5131   84.5129 C   0  0  0  0  0  0  0  0  0  0  0  0
    1.0657   65.5029   83.1205 C   0  0  0  0  0  0  0  0  0  0  0  0
    0.2914   64.5672   82.4328 C   0  0  0  0  0  0  0  0  0  0  0  0
   -0.4936   63.6271   83.1337 C   0  0  0  0  0  0  0  0  0  0  0  0
   -1.3173   62.6731   82.3706 C   0  0  0  0  0  0  0  0  0  0  0  0
   -1.9678   61.7319   83.0981 N   0  0  0  0  0  0  0  0  0  0  0  0
   -2.7022   60.8291   82.4285 C   0  0  0  0  0  0  0  0  0  0  0  0
   -3.3448   59.9159   83.2158 O   0  0  0  0  0  0  0  0  0  0  0  0
   -2.7821   60.8434   81.0402 C   0  0  0  0  0  0  0  0  0  0  0  0
   -3.4410   60.0601   80.1235 N   0  0  0  0  0  0  0  0  0  0  0  0
   -3.1255   60.5710   78.9512 C   0  0  0  0  0  0  0  0  0  0  0  0
   -3.5158   60.1744   77.6421 C   0  0  0  0  0  0  0  0  0  0  0  0
   -3.0644   60.8558   76.5742 C   0  0  0  0  0  0  0  0  0  0  0  0
   -2.1801   61.9987   76.7206 C   0  0  0  0  0  0  0  0  0  0  0  0
   -1.7926   62.3974   77.9506 C   0  0  0  0  0  0  0  0  0  0  0  0
   -0.8834   63.5715   78.1562 C   0  0  0  0  0  0  0  0  0  0  0  0
   -2.2715   61.6741   79.0639 N   0  0  0  0  0  0  0  0  0  0  0  0
   -2.0505   61.8430   80.4177 C   0  0  0  0  0  0  0  0  0  0  0  0
   -1.2890   62.7740   81.0247 N   0  0  0  0  0  0  0  0  0  0  0  0
   -3.0733   60.2111   84.1017 H   0  0  0  0  0  0  0  0  0  0  0  0
    2.0447   66.6868   82.2303 S   0  0  0  0  0  0  0  0  0  0  0  0
    3.2286   66.9397   83.0231 O   0  0  0  0  0  0  0  0  0  0  0  0
    2.1352   66.2670   80.8480 O   0  0  0  0  0  0  0  0  0  0  0  0
    1.0630   68.0790   82.2789 N   0  0  0  0  0  0  0  0  0  0  0  0
    0.0760   68.2225   81.1586 C   0  0  0  0  0  0  0  0  0  0  0  0
    0.4725   69.3413   80.1780 C   0  0  0  0  0  0  0  0  0  0  0  0
    0.6018   70.6807   80.7924 N   0  0  0  0  0  0  0  0  0  0  0  0
    0.9975   70.5800   82.2147 C   0  0  0  0  0  0  0  0  0  0  0  0
    1.8469   69.3339   82.5242 C   0  0  0  0  0  0  0  0  0  0  0  0
   -0.6134   71.4849   80.6079 C   0  0  0  0  0  0  0  0  0  0  0  0
   -0.8096   72.5258   81.7056 C   0  0  0  0  0  0  0  0  0  0  0  0
   -1.1914   62.6712   85.1868 O   0  0  0  0  0  0  0  0  0  0  0  0
   -2.6872   62.9506   87.0171 C   0  0  0  0  0  0  0  0  0  0  0  0
   -1.2479   62.6897   86.6107 C   0  0  0  0  0  0  0  0  0  0  0  0
 35 36  1  0  0  0
 36 34  1  0  0  0
 34  1  1  0  0  0
  1  2  1  0  0  0
  2  3  2  0  0  0
  3  4  1  0  0  0
  4 23  1  0  0  0
 23 24  2  0  0  0
 23 25  2  0  0  0
 23 26  1  0  0  0
 26 27  1  0  0  0
 27 28  1  0  0  0
 28 29  1  0  0  0
 29 32  1  0  0  0
 32 33  1  0  0  0
 29 30  1  0  0  0
 30 31  1  0  0  0
  4  5  2  0  0  0
  5  6  1  0  0  0
  6  7  1  0  0  0
  7  8  2  0  0  0
  8  9  1  0  0  0
  9 10  1  0  0  0
  9 11  2  0  0  0
 11 12  1  0  0  0
 12 13  2  0  0  0
 13 14  1  0  0  0
 14 15  2  0  0  0
 15 16  1  0  0  0
 16 17  2  0  0  0
 17 18  1  0  0  0
 17 19  1  0  0  0
 19 20  1  0  0  0
 20 21  2  0  0  0
  6  1  2  0  0  0
 21  7  1  0  0  0
 31 26  1  0  0  0
 20 11  1  0  0  0
 19 13  1  0  0  0
 10 22  1  0  0  0
M  END
> <minimizedAffinity>
-10.24861

$$$$



 36 40  0  0  0  0  0  0  0  0999 V2000
    0.7724   64.7605   84.5614 C   0  0  0  0  0  0  0  0  0  0  0  0
    1.6002   65.8805   84.7378 C   0  0  0  0  0  0  0  0  0  0  0  0
    1.7315   66.8347   83.7278 C   0  0  0  0  0  0  0  0  0  0  0  0
    1.0342   66.6708   82.5334 C   0  0  0  0  0  0  0  0  0  0  0  0
    0.2120   65.5601   82.3374 C   0  0  0  0  0  0  0  0  0  0  0  0
    0.0540   64.5926   83.3523 C   0  0  0  0  0  0  0  0  0  0  0  0
   -0.8435   63.4483   83.1156 C   0  0  0  0  0  0  0  0  0  0  0  0
   -1.5356   63.0007   84.1920 N   0  0  0  0  0  0  0  0  0  0  0  0
   -2.3388   61.9395   84.0149 C   0  0  0  0  0  0  0  0  0  0  0  0
   -3.0201   61.5439   85.1313 O   0  0  0  0  0  0  0  0  0  0  0  0
   -2.4472   61.3086   82.7804 C   0  0  0  0  0  0  0  0  0  0  0  0
   -3.1730   60.2323   82.3296 N   0  0  0  0  0  0  0  0  0  0  0  0
   -2.8514   60.1145   81.0578 C   0  0  0  0  0  0  0  0  0  0  0  0
   -3.2934   59.1784   80.0823 C   0  0  0  0  0  0  0  0  0  0  0  0
   -2.8234   59.2508   78.8244 C   0  0  0  0  0  0  0  0  0  0  0  0
   -1.8668   60.2696   78.4284 C   0  0  0  0  0  0  0  0  0  0  0  0
   -1.4291   61.1707   79.3330 C   0  0  0  0  0  0  0  0  0  0  0  0
   -0.4445   62.2430   78.9750 C   0  0  0  0  0  0  0  0  0  0  0  0
   -1.9283   61.0843   80.6503 N   0  0  0  0  0  0  0  0  0  0  0  0
   -1.6683   61.8515   81.7702 C   0  0  0  0  0  0  0  0  0  0  0  0
   -0.8376   62.9065   81.8791 N   0  0  0  0  0  0  0  0  0  0  0  0
   -2.7119   62.2005   85.7790 H   0  0  0  0  0  0  0  0  0  0  0  0
    1.2213   67.8869   81.2534 S   0  0  0  0  0  0  0  0  0  0  0  0
    2.4746   67.6097   80.5852 O   0  0  0  0  0  0  0  0  0  0  0  0
   -0.0226   67.9819   80.5195 O   0  0  0  0  0  0  0  0  0  0  0  0
    1.4001   69.3279   82.1456 N   0  0  0  0  0  0  0  0  0  0  0  0
    0.3545   70.3771   81.9096 C   0  0  0  0  0  0  0  0  0  0  0  0
    0.9067   71.5765   81.1179 C   0  0  0  0  0  0  0  0  0  0  0  0
    2.0484   72.2642   81.7596 N   0  0  0  0  0  0  0  0  0  0  0  0
    2.8329   71.3296   82.5968 C   0  0  0  0  0  0  0  0  0  0  0  0
    2.7947   69.8770   82.0883 C   0  0  0  0  0  0  0  0  0  0  0  0
    1.6187   73.4540   82.5061 C   0  0  0  0  0  0  0  0  0  0  0  0
    0.4035   74.1373   81.8870 C   0  0  0  0  0  0  0  0  0  0  0  0
    0.6284   63.7680   85.4985 O   0  0  0  0  0  0  0  0  0  0  0  0
   -0.5072   63.7718   87.5903 C   0  0  0  0  0  0  0  0  0  0  0  0
    0.7892   64.1048   86.8739 C   0  0  0  0  0  0  0  0  0  0  0  0
 35 36  1  0  0  0
 36 34  1  0  0  0
 34  1  1  0  0  0
  1  2  1  0  0  0
  2  3  2  0  0  0
  3  4  1  0  0  0
  4 23  1  0  0  0
 23 24  2  0  0  0
 23 25  2  0  0  0
 23 26  1  0  0  0
 26 27  1  0  0  0
 27 28  1  0  0  0
 28 29  1  0  0  0
 29 32  1  0  0  0
 32 33  1  0  0  0
 29 30  1  0  0  0
 30 31  1  0  0  0
  4  5  2  0  0  0
  5  6  1  0  0  0
  6  7  1  0  0  0
  7  8  2  0  0  0
  8  9  1  0  0  0
  9 10  1  0  0  0
  9 11  2  0  0  0
 11 12  1  0  0  0
 12 13  2  0  0  0
 13 14  1  0  0  0
 14 15  2  0  0  0
 15 16  1  0  0  0
 16 17  2  0  0  0
 17 18  1  0  0  0
 17 19  1  0  0  0
 19 20  1  0  0  0
 20 21  2  0  0  0
  6  1  2  0  0  0
 21  7  1  0  0  0
 31 26  1  0  0  0
 20 11  1  0  0  0
 19 13  1  0  0  0
 10 22  1  0  0  0
M  END
> <minimizedAffinity>
-10.04093

$$$$



 36 40  0  0  0  0  0  0  0  0999 V2000
    0.3069   63.7859   79.5646 C   0  0  0  0  0  0  0  0  0  0  0  0
    1.0104   64.5533   78.6228 C   0  0  0  0  0  0  0  0  0  0  0  0
    1.3093   65.8928   78.8764 C   0  0  0  0  0  0  0  0  0  0  0  0
    0.9029   66.4717   80.0762 C   0  0  0  0  0  0  0  0  0  0  0  0
    0.1965   65.7263   81.0214 C   0  0  0  0  0  0  0  0  0  0  0  0
   -0.1016   64.3666   80.7902 C   0  0  0  0  0  0  0  0  0  0  0  0
   -0.8265   63.6078   81.8245 C   0  0  0  0  0  0  0  0  0  0  0  0
   -1.8024   62.7778   81.3810 N   0  0  0  0  0  0  0  0  0  0  0  0
   -2.5017   62.0955   82.3020 C   0  0  0  0  0  0  0  0  0  0  0  0
   -3.4610   61.2656   81.7941 O   0  0  0  0  0  0  0  0  0  0  0  0
   -2.2504   62.2439   83.6616 C   0  0  0  0  0  0  0  0  0  0  0  0
   -2.7995   61.6853   84.7906 N   0  0  0  0  0  0  0  0  0  0  0  0
   -2.1376   62.2253   85.7931 C   0  0  0  0  0  0  0  0  0  0  0  0
   -2.2704   62.0242   87.1950 C   0  0  0  0  0  0  0  0  0  0  0  0
   -1.4725   62.6940   88.0454 C   0  0  0  0  0  0  0  0  0  0  0  0
   -0.4668   63.6271   87.5683 C   0  0  0  0  0  0  0  0  0  0  0  0
   -0.3187   63.8385   86.2434 C   0  0  0  0  0  0  0  0  0  0  0  0
    0.7052   64.7888   85.6994 C   0  0  0  0  0  0  0  0  0  0  0  0
   -1.1624   63.1311   85.3604 N   0  0  0  0  0  0  0  0  0  0  0  0
   -1.2428   63.1411   83.9807 C   0  0  0  0  0  0  0  0  0  0  0  0
   -0.5084   63.8624   83.1115 N   0  0  0  0  0  0  0  0  0  0  0  0
   -3.3456   61.4110   80.8395 H   0  0  0  0  0  0  0  0  0  0  0  0
    1.2798   68.1801   80.3788 S   0  0  0  0  0  0  0  0  0  0  0  0
    1.7682   68.7334   79.1341 O   0  0  0  0  0  0  0  0  0  0  0  0
    0.1710   68.7800   81.0900 O   0  0  0  0  0  0  0  0  0  0  0  0
    2.5882   68.0758   81.4658 N   0  0  0  0  0  0  0  0  0  0  0  0
    2.4667   67.0329   82.5371 C   0  0  0  0  0  0  0  0  0  0  0  0
    2.2205   67.6542   83.9241 C   0  0  0  0  0  0  0  0  0  0  0  0
    3.2726   68.5918   84.3738 N   0  0  0  0  0  0  0  0  0  0  0  0
    3.9303   69.2489   83.2226 C   0  0  0  0  0  0  0  0  0  0  0  0
    3.0042   69.4127   82.0037 C   0  0  0  0  0  0  0  0  0  0  0  0
    4.2376   67.9398   85.2689 C   0  0  0  0  0  0  0  0  0  0  0  0
    5.5454   67.5790   84.5715 C   0  0  0  0  0  0  0  0  0  0  0  0
   -0.0508   62.4763   79.3617 O   0  0  0  0  0  0  0  0  0  0  0  0
   -1.8507   62.3810   77.8073 C   0  0  0  0  0  0  0  0  0  0  0  0
   -0.3850   62.0612   78.0400 C   0  0  0  0  0  0  0  0  0  0  0  0
 35 36  1  0  0  0
 36 34  1  0  0  0
 34  1  1  0  0  0
  1  2  1  0  0  0
  2  3  2  0  0  0
  3  4  1  0  0  0
  4 23  1  0  0  0
 23 24  2  0  0  0
 23 25  2  0  0  0
 23 26  1  0  0  0
 26 27  1  0  0  0
 27 28  1  0  0  0
 28 29  1  0  0  0
 29 32  1  0  0  0
 32 33  1  0  0  0
 29 30  1  0  0  0
 30 31  1  0  0  0
  4  5  2  0  0  0
  5  6  1  0  0  0
  6  7  1  0  0  0
  7  8  2  0  0  0
  8  9  1  0  0  0
  9 10  1  0  0  0
  9 11  2  0  0  0
 11 12  1  0  0  0
 12 13  2  0  0  0
 13 14  1  0  0  0
 14 15  2  0  0  0
 15 16  1  0  0  0
 16 17  2  0  0  0
 17 18  1  0  0  0
 17 19  1  0  0  0
 19 20  1  0  0  0
 20 21  2  0  0  0
  6  1  2  0  0  0
 21  7  1  0  0  0
 31 26  1  0  0  0
 20 11  1  0  0  0
 19 13  1  0  0  0
 10 22  1  0  0  0
M  END
> <minimizedAffinity>
-9.98862

$$$$



 36 40  0  0  0  0  0  0  0  0999 V2000
    3.4719   66.5985   84.5111 C   0  0  0  0  0  0  0  0  0  0  0  0
    4.3212   67.6836   84.2429 C   0  0  0  0  0  0  0  0  0  0  0  0
    3.8752   68.7658   83.4827 C   0  0  0  0  0  0  0  0  0  0  0  0
    2.5743   68.7657   82.9853 C   0  0  0  0  0  0  0  0  0  0  0  0
    1.7179   67.6924   83.2358 C   0  0  0  0  0  0  0  0  0  0  0  0
    2.1452   66.5965   84.0151 C   0  0  0  0  0  0  0  0  0  0  0  0
    1.2020   65.4955   84.2782 C   0  0  0  0  0  0  0  0  0  0  0  0
    1.0661   65.1239   85.5749 N   0  0  0  0  0  0  0  0  0  0  0  0
    0.2367   64.1027   85.8434 C   0  0  0  0  0  0  0  0  0  0  0  0
    0.1304   63.7838   87.1677 O   0  0  0  0  0  0  0  0  0  0  0  0
   -0.4463   63.4364   84.8316 C   0  0  0  0  0  0  0  0  0  0  0  0
   -1.3328   62.3865   84.8225 N   0  0  0  0  0  0  0  0  0  0  0  0
   -1.6341   62.2075   83.5529 C   0  0  0  0  0  0  0  0  0  0  0  0
   -2.5045   61.2638   82.9404 C   0  0  0  0  0  0  0  0  0  0  0  0
   -2.6613   61.2670   81.6048 C   0  0  0  0  0  0  0  0  0  0  0  0
   -1.9598   62.2176   80.7598 C   0  0  0  0  0  0  0  0  0  0  0  0
   -1.1268   63.1241   81.3133 C   0  0  0  0  0  0  0  0  0  0  0  0
   -0.3813   64.1279   80.4863 C   0  0  0  0  0  0  0  0  0  0  0  0
   -0.9691   63.1106   82.7157 N   0  0  0  0  0  0  0  0  0  0  0  0
   -0.1997   63.9007   83.5488 C   0  0  0  0  0  0  0  0  0  0  0  0
    0.6226   64.9118   83.2077 N   0  0  0  0  0  0  0  0  0  0  0  0
    0.7225   64.4446   87.5657 H   0  0  0  0  0  0  0  0  0  0  0  0
    2.0257   70.1439   82.0095 S   0  0  0  0  0  0  0  0  0  0  0  0
    1.4799   69.6042   80.7828 O   0  0  0  0  0  0  0  0  0  0  0  0
    1.2554   71.0317   82.8541 O   0  0  0  0  0  0  0  0  0  0  0  0
    3.4905   70.9325   81.6399 N   0  0  0  0  0  0  0  0  0  0  0  0
    3.5427   72.3974   81.9577 C   0  0  0  0  0  0  0  0  0  0  0  0
    3.5193   73.2664   80.6869 C   0  0  0  0  0  0  0  0  0  0  0  0
    4.6280   73.0058   79.7429 N   0  0  0  0  0  0  0  0  0  0  0  0
    5.0931   71.6043   79.8388 C   0  0  0  0  0  0  0  0  0  0  0  0
    3.9846   70.6218   80.2582 C   0  0  0  0  0  0  0  0  0  0  0  0
    5.7243   73.9691   79.9101 C   0  0  0  0  0  0  0  0  0  0  0  0
    7.1029   73.3269   79.7923 C   0  0  0  0  0  0  0  0  0  0  0  0
    3.8594   65.4883   85.2191 O   0  0  0  0  0  0  0  0  0  0  0  0
    5.3559   65.1014   87.0291 C   0  0  0  0  0  0  0  0  0  0  0  0
    5.2407   65.3316   85.5329 C   0  0  0  0  0  0  0  0  0  0  0  0
 35 36  1  0  0  0
 36 34  1  0  0  0
 34  1  1  0  0  0
  1  2  1  0  0  0
  2  3  2  0  0  0
  3  4  1  0  0  0
  4 23  1  0  0  0
 23 24  2  0  0  0
 23 25  2  0  0  0
 23 26  1  0  0  0
 26 27  1  0  0  0
 27 28  1  0  0  0
 28 29  1  0  0  0
 29 32  1  0  0  0
 32 33  1  0  0  0
 29 30  1  0  0  0
 30 31  1  0  0  0
  4  5  2  0  0  0
  5  6  1  0  0  0
  6  7  1  0  0  0
  7  8  2  0  0  0
  8  9  1  0  0  0
  9 10  1  0  0  0
  9 11  2  0  0  0
 11 12  1  0  0  0
 12 13  2  0  0  0
 13 14  1  0  0  0
 14 15  2  0  0  0
 15 16  1  0  0  0
 16 17  2  0  0  0
 17 18  1  0  0  0
 17 19  1  0  0  0
 19 20  1  0  0  0
 20 21  2  0  0  0
  6  1  2  0  0  0
 21  7  1  0  0  0
 31 26  1  0  0  0
 20 11  1  0  0  0
 19 13  1  0  0  0
 10 22  1  0  0  0
M  END
> <minimizedAffinity>
-9.90447

$$$$



 36 40  0  0  0  0  0  0  0  0999 V2000
   -0.5412   63.5732   85.5977 C   0  0  0  0  0  0  0  0  0  0  0  0
   -1.4693   62.5314   85.7530 C   0  0  0  0  0  0  0  0  0  0  0  0
   -1.9528   61.8374   84.6429 C   0  0  0  0  0  0  0  0  0  0  0  0
   -1.5094   62.1852   83.3692 C   0  0  0  0  0  0  0  0  0  0  0  0
   -0.5924   63.2228   83.1948 C   0  0  0  0  0  0  0  0  0  0  0  0
   -0.0801   63.9259   84.3058 C   0  0  0  0  0  0  0  0  0  0  0  0
    0.9060   64.9973   84.0809 C   0  0  0  0  0  0  0  0  0  0  0  0
    0.6551   65.8299   83.0408 N   0  0  0  0  0  0  0  0  0  0  0  0
    1.5515   66.7979   82.7915 C   0  0  0  0  0  0  0  0  0  0  0  0
    1.2372   67.6132   81.7411 O   0  0  0  0  0  0  0  0  0  0  0  0
    2.7044   66.9349   83.5570 C   0  0  0  0  0  0  0  0  0  0  0  0
    3.7624   67.8111   83.5235 N   0  0  0  0  0  0  0  0  0  0  0  0
    4.5495   67.4310   84.5088 C   0  0  0  0  0  0  0  0  0  0  0  0
    5.7898   67.9679   84.9520 C   0  0  0  0  0  0  0  0  0  0  0  0
    6.4258   67.4087   85.9966 C   0  0  0  0  0  0  0  0  0  0  0  0
    5.8760   66.2593   86.6940 C   0  0  0  0  0  0  0  0  0  0  0  0
    4.7010   65.7281   86.2950 C   0  0  0  0  0  0  0  0  0  0  0  0
    4.0897   64.5441   86.9819 C   0  0  0  0  0  0  0  0  0  0  0  0
    4.0432   66.3224   85.1969 N   0  0  0  0  0  0  0  0  0  0  0  0
    2.8510   66.0043   84.5741 C   0  0  0  0  0  0  0  0  0  0  0  0
    1.9979   65.0060   84.8748 N   0  0  0  0  0  0  0  0  0  0  0  0
    0.3855   67.2359   81.4619 H   0  0  0  0  0  0  0  0  0  0  0  0
   -2.1432   61.3012   81.9659 S   0  0  0  0  0  0  0  0  0  0  0  0
   -1.5621   59.9764   82.0016 O   0  0  0  0  0  0  0  0  0  0  0  0
   -3.5759   61.4975   81.9034 O   0  0  0  0  0  0  0  0  0  0  0  0
   -1.4530   62.1512   80.6600 N   0  0  0  0  0  0  0  0  0  0  0  0
   -2.3989   62.5496   79.5661 C   0  0  0  0  0  0  0  0  0  0  0  0
   -2.1825   61.7238   78.2849 C   0  0  0  0  0  0  0  0  0  0  0  0
   -0.8215   61.8201   77.7133 N   0  0  0  0  0  0  0  0  0  0  0  0
    0.1832   62.0832   78.7674 C   0  0  0  0  0  0  0  0  0  0  0  0
   -0.2057   61.5015   80.1387 C   0  0  0  0  0  0  0  0  0  0  0  0
   -0.7560   62.8028   76.6236 C   0  0  0  0  0  0  0  0  0  0  0  0
   -0.3517   64.1940   77.1013 C   0  0  0  0  0  0  0  0  0  0  0  0
   -0.0553   64.3189   86.6427 O   0  0  0  0  0  0  0  0  0  0  0  0
    0.8030   63.1763   88.5461 C   0  0  0  0  0  0  0  0  0  0  0  0
   -0.3871   63.9229   87.9709 C   0  0  0  0  0  0  0  0  0  0  0  0
 35 36  1  0  0  0
 36 34  1  0  0  0
 34  1  1  0  0  0
  1  2  1  0  0  0
  2  3  2  0  0  0
  3  4  1  0  0  0
  4 23  1  0  0  0
 23 24  2  0  0  0
 23 25  2  0  0  0
 23 26  1  0  0  0
 26 27  1  0  0  0
 27 28  1  0  0  0
 28 29  1  0  0  0
 29 32  1  0  0  0
 32 33  1  0  0  0
 29 30  1  0  0  0
 30 31  1  0  0  0
  4  5  2  0  0  0
  5  6  1  0  0  0
  6  7  1  0  0  0
  7  8  2  0  0  0
  8  9  1  0  0  0
  9 10  1  0  0  0
  9 11  2  0  0  0
 11 12  1  0  0  0
 12 13  2  0  0  0
 13 14  1  0  0  0
 14 15  2  0  0  0
 15 16  1  0  0  0
 16 17  2  0  0  0
 17 18  1  0  0  0
 17 19  1  0  0  0
 19 20  1  0  0  0
 20 21  2  0  0  0
  6  1  2  0  0  0
 21  7  1  0  0  0
 31 26  1  0  0  0
 20 11  1  0  0  0
 19 13  1  0  0  0
 10 22  1  0  0  0
M  END
> <minimizedAffinity>
-9.80235

$$$$



 36 40  0  0  0  0  0  0  0  0999 V2000
    3.2555   66.5024   84.5902 C   0  0  0  0  0  0  0  0  0  0  0  0
    4.0921   67.5777   84.2518 C   0  0  0  0  0  0  0  0  0  0  0  0
    3.6961   68.5144   83.2960 C   0  0  0  0  0  0  0  0  0  0  0  0
    2.4584   68.3775   82.6721 C   0  0  0  0  0  0  0  0  0  0  0  0
    1.6163   67.3110   82.9906 C   0  0  0  0  0  0  0  0  0  0  0  0
    1.9920   66.3626   83.9655 C   0  0  0  0  0  0  0  0  0  0  0  0
    1.0632   65.2663   84.2915 C   0  0  0  0  0  0  0  0  0  0  0  0
    0.9885   64.9171   85.5993 N   0  0  0  0  0  0  0  0  0  0  0  0
    0.1735   63.9007   85.9240 C   0  0  0  0  0  0  0  0  0  0  0  0
    0.1297   63.6048   87.2571 O   0  0  0  0  0  0  0  0  0  0  0  0
   -0.5554   63.2169   84.9570 C   0  0  0  0  0  0  0  0  0  0  0  0
   -1.4404   62.1669   85.0077 N   0  0  0  0  0  0  0  0  0  0  0  0
   -1.8006   61.9658   83.7569 C   0  0  0  0  0  0  0  0  0  0  0  0
   -2.6979   61.0116   83.2022 C   0  0  0  0  0  0  0  0  0  0  0  0
   -2.9171   60.9915   81.8756 C   0  0  0  0  0  0  0  0  0  0  0  0
   -2.2569   61.9274   80.9823 C   0  0  0  0  0  0  0  0  0  0  0  0
   -1.3997   62.8435   81.4804 C   0  0  0  0  0  0  0  0  0  0  0  0
   -0.6947   63.8329   80.6021 C   0  0  0  0  0  0  0  0  0  0  0  0
   -1.1765   62.8544   82.8739 N   0  0  0  0  0  0  0  0  0  0  0  0
   -0.3697   63.6589   83.6562 C   0  0  0  0  0  0  0  0  0  0  0  0
    0.4349   64.6640   83.2595 N   0  0  0  0  0  0  0  0  0  0  0  0
    0.7392   64.2725   87.6155 H   0  0  0  0  0  0  0  0  0  0  0  0
    1.9742   69.5703   81.4492 S   0  0  0  0  0  0  0  0  0  0  0  0
    3.0921   69.7268   80.5438 O   0  0  0  0  0  0  0  0  0  0  0  0
    0.6525   69.2293   80.9677 O   0  0  0  0  0  0  0  0  0  0  0  0
    1.8306   70.9966   82.3708 N   0  0  0  0  0  0  0  0  0  0  0  0
    0.6168   71.8336   82.0954 C   0  0  0  0  0  0  0  0  0  0  0  0
    0.9679   73.1351   81.3518 C   0  0  0  0  0  0  0  0  0  0  0  0
    1.9245   74.0112   82.0629 N   0  0  0  0  0  0  0  0  0  0  0  0
    2.8311   73.2224   82.9264 C   0  0  0  0  0  0  0  0  0  0  0  0
    3.0958   71.8018   82.3952 C   0  0  0  0  0  0  0  0  0  0  0  0
    1.2395   75.0791   82.8031 C   0  0  0  0  0  0  0  0  0  0  0  0
   -0.0780   75.4982   82.1586 C   0  0  0  0  0  0  0  0  0  0  0  0
    3.6000   65.5276   85.4930 O   0  0  0  0  0  0  0  0  0  0  0  0
    5.2428   65.2110   87.1859 C   0  0  0  0  0  0  0  0  0  0  0  0
    4.9825   65.2438   85.6906 C   0  0  0  0  0  0  0  0  0  0  0  0
 35 36  1  0  0  0
 36 34  1  0  0  0
 34  1  1  0  0  0
  1  2  1  0  0  0
  2  3  2  0  0  0
  3  4  1  0  0  0
  4 23  1  0  0  0
 23 24  2  0  0  0
 23 25  2  0  0  0
 23 26  1  0  0  0
 26 27  1  0  0  0
 27 28  1  0  0  0
 28 29  1  0  0  0
 29 32  1  0  0  0
 32 33  1  0  0  0
 29 30  1  0  0  0
 30 31  1  0  0  0
  4  5  2  0  0  0
  5  6  1  0  0  0
  6  7  1  0  0  0
  7  8  2  0  0  0
  8  9  1  0  0  0
  9 10  1  0  0  0
  9 11  2  0  0  0
 11 12  1  0  0  0
 12 13  2  0  0  0
 13 14  1  0  0  0
 14 15  2  0  0  0
 15 16  1  0  0  0
 16 17  2  0  0  0
 17 18  1  0  0  0
 17 19  1  0  0  0
 19 20  1  0  0  0
 20 21  2  0  0  0
  6  1  2  0  0  0
 21  7  1  0  0  0
 31 26  1  0  0  0
 20 11  1  0  0  0
 19 13  1  0  0  0
 10 22  1  0  0  0
M  END
> <minimizedAffinity>
-9.77835

$$$$
