


 35 38  0  0  0  0  0  0  0  0999 V2000
    1.1886   67.1960   81.0641 C   0  0  0  0  0  0  0  0  0  0  0  0
    0.5502   68.1100   80.3074 N   0  0  0  0  0  0  0  0  0  0  0  0
    0.7088   69.4515   80.5334 N   0  0  0  0  0  0  0  0  0  0  0  0
    1.5008   69.9005   81.5296 C   0  0  0  0  0  0  0  0  0  0  0  0
    2.1586   68.9885   82.3842 C   0  0  0  0  0  0  0  0  0  0  0  0
    2.9508   69.3977   83.4854 C   0  0  0  0  0  0  0  0  0  0  0  0
    3.5826   68.4770   84.3232 C   0  0  0  0  0  0  0  0  0  0  0  0
    3.4289   67.1150   84.0901 C   0  0  0  0  0  0  0  0  0  0  0  0
    2.6415   66.6850   83.0169 C   0  0  0  0  0  0  0  0  0  0  0  0
    1.9975   67.6025   82.1464 C   0  0  0  0  0  0  0  0  0  0  0  0
    1.6863   71.3016   81.6985 N   0  0  0  0  0  0  0  0  0  0  0  0
    2.8951   71.7301   80.9628 C   0  0  0  0  0  0  0  0  0  0  0  0
    2.8347   73.2162   80.5986 C   0  0  0  0  0  0  0  0  0  0  0  0
    2.0759   74.0291   81.6515 C   0  0  0  0  0  0  0  0  0  0  0  0
    0.6459   73.4915   81.8428 C   0  0  0  0  0  0  0  0  0  0  0  0
    0.4811   72.0567   81.3368 C   0  0  0  0  0  0  0  0  0  0  0  0
    2.0548   75.5050   81.2905 C   0  0  0  0  0  0  0  0  0  0  0  0
    1.1523   76.2554   81.9864 N   0  0  0  0  0  0  0  0  0  0  0  0
    2.7817   76.0240   80.4522 O   0  0  0  0  0  0  0  0  0  0  0  0
    0.6878   75.9128   82.8158 H   0  0  0  0  0  0  0  0  0  0  0  0
    1.1666   77.2546   81.8247 H   0  0  0  0  0  0  0  0  0  0  0  0
    1.0274   65.8189   80.7892 N   0  0  0  0  0  0  0  0  0  0  0  0
    1.1787   65.6605   79.7969 H   0  0  0  0  0  0  0  0  0  0  0  0
   -0.2535   65.2680   81.2169 C   0  0  0  0  0  0  0  0  0  0  0  0
   -1.2124   61.8782   78.6807 C   0  0  0  0  0  0  0  0  0  0  0  0
   -0.5201   62.9786   78.1645 C   0  0  0  0  0  0  0  0  0  0  0  0
   -0.2117   64.0745   78.9804 C   0  0  0  0  0  0  0  0  0  0  0  0
   -0.5929   64.0935   80.3275 C   0  0  0  0  0  0  0  0  0  0  0  0
   -1.2823   62.9896   80.8476 C   0  0  0  0  0  0  0  0  0  0  0  0
   -1.5891   61.8952   80.0329 C   0  0  0  0  0  0  0  0  0  0  0  0
   -2.4425   60.5710   80.7484 Cl  0  0  0  0  0  0  0  0  0  0  0  0
   -2.0862   60.9623   76.6537 C   0  0  0  0  0  0  0  0  0  0  0  0
   -1.5543   60.7661   77.9565 O   0  0  0  0  0  0  0  0  0  0  0  0
    4.0664   66.1594   84.9474 C   0  0  0  0  0  0  0  0  0  0  0  0
    4.5839   65.3920   85.6474 N   0  0  0  0  0  0  0  0  0  0  0  0
 32 33  1  0  0  0
 33 25  1  0  0  0
 25 26  1  0  0  0
 26 27  2  0  0  0
 27 28  1  0  0  0
 28 24  1  0  0  0
 24 22  1  0  0  0
 22  1  1  0  0  0
  1  2  1  0  0  0
  2  3  2  0  0  0
  3  4  1  0  0  0
  4 11  1  0  0  0
 11 12  1  0  0  0
 12 13  1  0  0  0
 13 14  1  0  0  0
 14 17  1  0  0  0
 17 18  1  0  0  0
 17 19  2  0  0  0
 14 15  1  0  0  0
 15 16  1  0  0  0
  4  5  2  0  0  0
  5  6  1  0  0  0
  6  7  2  0  0  0
  7  8  1  0  0  0
  8 34  1  0  0  0
 34 35  3  0  0  0
  8  9  2  0  0  0
  9 10  1  0  0  0
 28 29  2  0  0  0
 29 30  1  0  0  0
 30 31  1  0  0  0
 30 25  2  0  0  0
 10  1  2  0  0  0
 16 11  1  0  0  0
 10  5  1  0  0  0
 22 23  1  0  0  0
 18 20  1  0  0  0
 18 21  1  0  0  0
M  END
> <minimizedAffinity>
-1.58602

$$$$



 35 38  0  0  0  0  0  0  0  0999 V2000
    1.1488   67.2547   81.1579 C   0  0  0  0  0  0  0  0  0  0  0  0
    0.5169   68.1872   80.4186 N   0  0  0  0  0  0  0  0  0  0  0  0
    0.7295   69.5233   80.6321 N   0  0  0  0  0  0  0  0  0  0  0  0
    1.5701   69.9485   81.5984 C   0  0  0  0  0  0  0  0  0  0  0  0
    2.2248   69.0176   82.4349 C   0  0  0  0  0  0  0  0  0  0  0  0
    3.0679   69.4035   83.5062 C   0  0  0  0  0  0  0  0  0  0  0  0
    3.6958   68.4648   84.3268 C   0  0  0  0  0  0  0  0  0  0  0  0
    3.4871   67.1080   84.1062 C   0  0  0  0  0  0  0  0  0  0  0  0
    2.6491   66.7013   83.0627 C   0  0  0  0  0  0  0  0  0  0  0  0
    2.0078   67.6372   82.2098 C   0  0  0  0  0  0  0  0  0  0  0  0
    1.8097   71.3430   81.7536 N   0  0  0  0  0  0  0  0  0  0  0  0
    2.9867   71.7327   80.9481 C   0  0  0  0  0  0  0  0  0  0  0  0
    2.9526   73.2199   80.5853 C   0  0  0  0  0  0  0  0  0  0  0  0
    2.2826   74.0567   81.6788 C   0  0  0  0  0  0  0  0  0  0  0  0
    0.8497   73.5650   81.9539 C   0  0  0  0  0  0  0  0  0  0  0  0
    0.6102   72.1361   81.4611 C   0  0  0  0  0  0  0  0  0  0  0  0
    2.2876   75.5325   81.3169 C   0  0  0  0  0  0  0  0  0  0  0  0
    1.3205   76.2782   81.9256 N   0  0  0  0  0  0  0  0  0  0  0  0
    3.0866   76.0553   80.5496 O   0  0  0  0  0  0  0  0  0  0  0  0
    0.7827   75.9331   82.7084 H   0  0  0  0  0  0  0  0  0  0  0  0
    1.3446   77.2775   81.7656 H   0  0  0  0  0  0  0  0  0  0  0  0
    0.9307   65.8829   80.8958 N   0  0  0  0  0  0  0  0  0  0  0  0
    1.8110   65.3844   80.9930 H   0  0  0  0  0  0  0  0  0  0  0  0
    0.3158   65.6099   79.6018 C   0  0  0  0  0  0  0  0  0  0  0  0
   -1.4844   61.6616   79.7097 C   0  0  0  0  0  0  0  0  0  0  0  0
   -1.2103   62.3503   80.8959 C   0  0  0  0  0  0  0  0  0  0  0  0
   -0.6272   63.6234   80.8636 C   0  0  0  0  0  0  0  0  0  0  0  0
   -0.3032   64.2313   79.6447 C   0  0  0  0  0  0  0  0  0  0  0  0
   -0.5817   63.5448   78.4550 C   0  0  0  0  0  0  0  0  0  0  0  0
   -1.1648   62.2741   78.4876 C   0  0  0  0  0  0  0  0  0  0  0  0
   -1.4774   61.4908   76.9769 Cl  0  0  0  0  0  0  0  0  0  0  0  0
   -3.4614   60.3223   79.8064 C   0  0  0  0  0  0  0  0  0  0  0  0
   -2.0525   60.4159   79.6481 O   0  0  0  0  0  0  0  0  0  0  0  0
    4.1202   66.1342   84.9463 C   0  0  0  0  0  0  0  0  0  0  0  0
    4.6252   65.3413   85.6266 N   0  0  0  0  0  0  0  0  0  0  0  0
 32 33  1  0  0  0
 33 25  1  0  0  0
 25 26  1  0  0  0
 26 27  2  0  0  0
 27 28  1  0  0  0
 28 24  1  0  0  0
 24 22  1  0  0  0
 22  1  1  0  0  0
  1  2  1  0  0  0
  2  3  2  0  0  0
  3  4  1  0  0  0
  4 11  1  0  0  0
 11 12  1  0  0  0
 12 13  1  0  0  0
 13 14  1  0  0  0
 14 17  1  0  0  0
 17 18  1  0  0  0
 17 19  2  0  0  0
 14 15  1  0  0  0
 15 16  1  0  0  0
  4  5  2  0  0  0
  5  6  1  0  0  0
  6  7  2  0  0  0
  7  8  1  0  0  0
  8 34  1  0  0  0
 34 35  3  0  0  0
  8  9  2  0  0  0
  9 10  1  0  0  0
 28 29  2  0  0  0
 29 30  1  0  0  0
 30 31  1  0  0  0
 30 25  2  0  0  0
 10  1  2  0  0  0
 16 11  1  0  0  0
 10  5  1  0  0  0
 22 23  1  0  0  0
 18 20  1  0  0  0
 18 21  1  0  0  0
M  END
> <minimizedAffinity>
-1.57627

$$$$



 35 38  0  0  0  0  0  0  0  0999 V2000
    0.9007   65.9342   81.9974 C   0  0  0  0  0  0  0  0  0  0  0  0
    0.9457   65.8923   80.6514 N   0  0  0  0  0  0  0  0  0  0  0  0
    0.5036   64.7943   79.9622 N   0  0  0  0  0  0  0  0  0  0  0  0
    0.0195   63.7142   80.6105 C   0  0  0  0  0  0  0  0  0  0  0  0
   -0.0090   63.6830   82.0223 C   0  0  0  0  0  0  0  0  0  0  0  0
   -0.4452   62.5545   82.7599 C   0  0  0  0  0  0  0  0  0  0  0  0
   -0.4540   62.5430   84.1558 C   0  0  0  0  0  0  0  0  0  0  0  0
   -0.0129   63.6599   84.8566 C   0  0  0  0  0  0  0  0  0  0  0  0
    0.4347   64.7822   84.1517 C   0  0  0  0  0  0  0  0  0  0  0  0
    0.4438   64.8202   82.7330 C   0  0  0  0  0  0  0  0  0  0  0  0
   -0.4837   62.6147   79.8596 N   0  0  0  0  0  0  0  0  0  0  0  0
   -1.9616   62.6544   79.8590 C   0  0  0  0  0  0  0  0  0  0  0  0
   -2.5436   61.9205   78.6476 C   0  0  0  0  0  0  0  0  0  0  0  0
   -1.6663   60.7394   78.2231 C   0  0  0  0  0  0  0  0  0  0  0  0
   -0.2330   61.2007   77.9008 C   0  0  0  0  0  0  0  0  0  0  0  0
    0.1022   62.5616   78.5152 C   0  0  0  0  0  0  0  0  0  0  0  0
   -2.2759   60.0037   77.0415 C   0  0  0  0  0  0  0  0  0  0  0  0
   -3.5358   60.4029   76.7021 N   0  0  0  0  0  0  0  0  0  0  0  0
   -1.7105   59.1206   76.4083 O   0  0  0  0  0  0  0  0  0  0  0  0
   -3.9497   61.2525   77.0597 H   0  0  0  0  0  0  0  0  0  0  0  0
   -3.9398   59.9866   75.8725 H   0  0  0  0  0  0  0  0  0  0  0  0
    1.3380   67.0921   82.6801 N   0  0  0  0  0  0  0  0  0  0  0  0
    0.5369   67.6902   82.8622 H   0  0  0  0  0  0  0  0  0  0  0  0
    2.3948   67.8284   81.9957 C   0  0  0  0  0  0  0  0  0  0  0  0
    1.0777   71.9283   81.4497 C   0  0  0  0  0  0  0  0  0  0  0  0
    0.2453   70.8614   81.0956 C   0  0  0  0  0  0  0  0  0  0  0  0
    0.6691   69.5377   81.2687 C   0  0  0  0  0  0  0  0  0  0  0  0
    1.9351   69.2547   81.7955 C   0  0  0  0  0  0  0  0  0  0  0  0
    2.7685   70.3225   82.1554 C   0  0  0  0  0  0  0  0  0  0  0  0
    2.3446   71.6440   81.9834 C   0  0  0  0  0  0  0  0  0  0  0  0
    3.4307   72.9071   82.4511 Cl  0  0  0  0  0  0  0  0  0  0  0  0
    1.2406   73.9464   80.1800 C   0  0  0  0  0  0  0  0  0  0  0  0
    0.7449   73.2510   81.3155 O   0  0  0  0  0  0  0  0  0  0  0  0
   -0.0100   63.6580   86.2900 C   0  0  0  0  0  0  0  0  0  0  0  0
   -0.0093   63.6652   87.4504 N   0  0  0  0  0  0  0  0  0  0  0  0
 32 33  1  0  0  0
 33 25  1  0  0  0
 25 26  1  0  0  0
 26 27  2  0  0  0
 27 28  1  0  0  0
 28 24  1  0  0  0
 24 22  1  0  0  0
 22  1  1  0  0  0
  1  2  1  0  0  0
  2  3  2  0  0  0
  3  4  1  0  0  0
  4 11  1  0  0  0
 11 12  1  0  0  0
 12 13  1  0  0  0
 13 14  1  0  0  0
 14 17  1  0  0  0
 17 18  1  0  0  0
 17 19  2  0  0  0
 14 15  1  0  0  0
 15 16  1  0  0  0
  4  5  2  0  0  0
  5  6  1  0  0  0
  6  7  2  0  0  0
  7  8  1  0  0  0
  8 34  1  0  0  0
 34 35  3  0  0  0
  8  9  2  0  0  0
  9 10  1  0  0  0
 28 29  2  0  0  0
 29 30  1  0  0  0
 30 31  1  0  0  0
 30 25  2  0  0  0
 10  1  2  0  0  0
 16 11  1  0  0  0
 10  5  1  0  0  0
 22 23  1  0  0  0
 18 20  1  0  0  0
 18 21  1  0  0  0
M  END
> <minimizedAffinity>
-1.35393

$$$$



 35 38  0  0  0  0  0  0  0  0999 V2000
    1.5246   67.3383   80.5936 C   0  0  0  0  0  0  0  0  0  0  0  0
    0.8946   68.2279   79.8017 N   0  0  0  0  0  0  0  0  0  0  0  0
    0.8628   69.5599   80.1188 N   0  0  0  0  0  0  0  0  0  0  0  0
    1.4519   70.0222   81.2415 C   0  0  0  0  0  0  0  0  0  0  0  0
    2.0873   69.1299   82.1331 C   0  0  0  0  0  0  0  0  0  0  0  0
    2.6669   69.5455   83.3575 C   0  0  0  0  0  0  0  0  0  0  0  0
    3.2801   68.6429   84.2282 C   0  0  0  0  0  0  0  0  0  0  0  0
    3.3199   67.2916   83.9037 C   0  0  0  0  0  0  0  0  0  0  0  0
    2.7438   66.8539   82.7066 C   0  0  0  0  0  0  0  0  0  0  0  0
    2.1234   67.7543   81.8016 C   0  0  0  0  0  0  0  0  0  0  0  0
    1.4476   71.4201   81.5094 N   0  0  0  0  0  0  0  0  0  0  0  0
    2.6491   72.0396   80.9103 C   0  0  0  0  0  0  0  0  0  0  0  0
    2.4339   73.5298   80.6313 C   0  0  0  0  0  0  0  0  0  0  0  0
    1.4976   74.1712   81.6594 C   0  0  0  0  0  0  0  0  0  0  0  0
    0.1348   73.4554   81.6911 C   0  0  0  0  0  0  0  0  0  0  0  0
    0.1910   72.0501   81.0880 C   0  0  0  0  0  0  0  0  0  0  0  0
    1.3224   75.6557   81.3864 C   0  0  0  0  0  0  0  0  0  0  0  0
    1.7666   76.0734   80.1656 N   0  0  0  0  0  0  0  0  0  0  0  0
    0.8173   76.4498   82.1706 O   0  0  0  0  0  0  0  0  0  0  0  0
    1.9954   75.4281   79.4226 H   0  0  0  0  0  0  0  0  0  0  0  0
    1.5945   77.0409   79.9226 H   0  0  0  0  0  0  0  0  0  0  0  0
    1.5648   65.9740   80.2260 N   0  0  0  0  0  0  0  0  0  0  0  0
    2.4132   65.8003   79.6942 H   0  0  0  0  0  0  0  0  0  0  0  0
    0.3881   65.5146   79.4970 C   0  0  0  0  0  0  0  0  0  0  0  0
   -1.0399   61.8369   81.3073 C   0  0  0  0  0  0  0  0  0  0  0  0
   -0.4515   62.8338   82.0926 C   0  0  0  0  0  0  0  0  0  0  0  0
    0.0121   64.0202   81.5103 C   0  0  0  0  0  0  0  0  0  0  0  0
   -0.0998   64.2317   80.1308 C   0  0  0  0  0  0  0  0  0  0  0  0
   -0.6935   63.2359   79.3431 C   0  0  0  0  0  0  0  0  0  0  0  0
   -1.1572   62.0519   79.9250 C   0  0  0  0  0  0  0  0  0  0  0  0
   -1.8776   60.8706   78.8862 Cl  0  0  0  0  0  0  0  0  0  0  0  0
   -2.6409   60.6940   82.6646 C   0  0  0  0  0  0  0  0  0  0  0  0
   -1.5203   60.6485   81.7921 O   0  0  0  0  0  0  0  0  0  0  0  0
    3.9402   66.3536   84.7927 C   0  0  0  0  0  0  0  0  0  0  0  0
    4.4467   65.6009   85.5162 N   0  0  0  0  0  0  0  0  0  0  0  0
 32 33  1  0  0  0
 33 25  1  0  0  0
 25 26  1  0  0  0
 26 27  2  0  0  0
 27 28  1  0  0  0
 28 24  1  0  0  0
 24 22  1  0  0  0
 22  1  1  0  0  0
  1  2  1  0  0  0
  2  3  2  0  0  0
  3  4  1  0  0  0
  4 11  1  0  0  0
 11 12  1  0  0  0
 12 13  1  0  0  0
 13 14  1  0  0  0
 14 17  1  0  0  0
 17 18  1  0  0  0
 17 19  2  0  0  0
 14 15  1  0  0  0
 15 16  1  0  0  0
  4  5  2  0  0  0
  5  6  1  0  0  0
  6  7  2  0  0  0
  7  8  1  0  0  0
  8 34  1  0  0  0
 34 35  3  0  0  0
  8  9  2  0  0  0
  9 10  1  0  0  0
 28 29  2  0  0  0
 29 30  1  0  0  0
 30 31  1  0  0  0
 30 25  2  0  0  0
 10  1  2  0  0  0
 16 11  1  0  0  0
 10  5  1  0  0  0
 22 23  1  0  0  0
 18 20  1  0  0  0
 18 21  1  0  0  0
M  END
> <minimizedAffinity>
-1.35059

$$$$



 35 38  0  0  0  0  0  0  0  0999 V2000
    2.5565   75.0173   81.4559 C   0  0  0  0  0  0  0  0  0  0  0  0
    1.4903   74.3256   81.9035 N   0  0  0  0  0  0  0  0  0  0  0  0
    1.4624   72.9571   81.8532 N   0  0  0  0  0  0  0  0  0  0  0  0
    2.4977   72.2583   81.3424 C   0  0  0  0  0  0  0  0  0  0  0  0
    3.6224   72.9314   80.8161 C   0  0  0  0  0  0  0  0  0  0  0  0
    4.7105   72.2566   80.2092 C   0  0  0  0  0  0  0  0  0  0  0  0
    5.8067   72.9444   79.6858 C   0  0  0  0  0  0  0  0  0  0  0  0
    5.8400   74.3332   79.7433 C   0  0  0  0  0  0  0  0  0  0  0  0
    4.7721   75.0236   80.3261 C   0  0  0  0  0  0  0  0  0  0  0  0
    3.6518   74.3453   80.8731 C   0  0  0  0  0  0  0  0  0  0  0  0
    2.4576   70.8356   81.3587 N   0  0  0  0  0  0  0  0  0  0  0  0
    2.7261   70.3514   82.7297 C   0  0  0  0  0  0  0  0  0  0  0  0
    2.1337   68.9584   82.9605 C   0  0  0  0  0  0  0  0  0  0  0  0
    2.1447   68.1168   81.6812 C   0  0  0  0  0  0  0  0  0  0  0  0
    1.3733   68.8189   80.5487 C   0  0  0  0  0  0  0  0  0  0  0  0
    1.2067   70.3209   80.7895 C   0  0  0  0  0  0  0  0  0  0  0  0
    1.5843   66.7277   81.9369 C   0  0  0  0  0  0  0  0  0  0  0  0
    1.9252   66.1814   83.1400 N   0  0  0  0  0  0  0  0  0  0  0  0
    0.8694   66.1139   81.1542 O   0  0  0  0  0  0  0  0  0  0  0  0
    2.3334   66.7266   83.8864 H   0  0  0  0  0  0  0  0  0  0  0  0
    1.5056   65.2903   83.3732 H   0  0  0  0  0  0  0  0  0  0  0  0
    2.5684   76.4279   81.5465 N   0  0  0  0  0  0  0  0  0  0  0  0
    3.4179   76.7209   82.0210 H   0  0  0  0  0  0  0  0  0  0  0  0
    1.3888   76.9975   82.1877 C   0  0  0  0  0  0  0  0  0  0  0  0
    2.4972   78.2721   86.1863 C   0  0  0  0  0  0  0  0  0  0  0  0
    1.1576   78.0329   85.8624 C   0  0  0  0  0  0  0  0  0  0  0  0
    0.7974   77.6239   84.5722 C   0  0  0  0  0  0  0  0  0  0  0  0
    1.7690   77.4497   83.5793 C   0  0  0  0  0  0  0  0  0  0  0  0
    3.1123   77.6842   83.9034 C   0  0  0  0  0  0  0  0  0  0  0  0
    3.4717   78.0916   85.1920 C   0  0  0  0  0  0  0  0  0  0  0  0
    5.1501   78.3613   85.5142 Cl  0  0  0  0  0  0  0  0  0  0  0  0
    2.0090   78.6522   88.4947 C   0  0  0  0  0  0  0  0  0  0  0  0
    2.9385   78.6732   87.4202 O   0  0  0  0  0  0  0  0  0  0  0  0
    6.9565   75.0516   79.2029 C   0  0  0  0  0  0  0  0  0  0  0  0
    7.8610   75.6272   78.7590 N   0  0  0  0  0  0  0  0  0  0  0  0
 32 33  1  0  0  0
 33 25  1  0  0  0
 25 26  1  0  0  0
 26 27  2  0  0  0
 27 28  1  0  0  0
 28 24  1  0  0  0
 24 22  1  0  0  0
 22  1  1  0  0  0
  1  2  1  0  0  0
  2  3  2  0  0  0
  3  4  1  0  0  0
  4 11  1  0  0  0
 11 12  1  0  0  0
 12 13  1  0  0  0
 13 14  1  0  0  0
 14 17  1  0  0  0
 17 18  1  0  0  0
 17 19  2  0  0  0
 14 15  1  0  0  0
 15 16  1  0  0  0
  4  5  2  0  0  0
  5  6  1  0  0  0
  6  7  2  0  0  0
  7  8  1  0  0  0
  8 34  1  0  0  0
 34 35  3  0  0  0
  8  9  2  0  0  0
  9 10  1  0  0  0
 28 29  2  0  0  0
 29 30  1  0  0  0
 30 31  1  0  0  0
 30 25  2  0  0  0
 10  1  2  0  0  0
 16 11  1  0  0  0
 10  5  1  0  0  0
 22 23  1  0  0  0
 18 20  1  0  0  0
 18 21  1  0  0  0
M  END
> <minimizedAffinity>
-1.27465

$$$$



 35 38  0  0  0  0  0  0  0  0999 V2000
    1.8762   69.0044   81.8354 C   0  0  0  0  0  0  0  0  0  0  0  0
    1.0424   68.6467   80.8394 N   0  0  0  0  0  0  0  0  0  0  0  0
    0.6351   67.3476   80.6892 N   0  0  0  0  0  0  0  0  0  0  0  0
    1.0660   66.3820   81.5277 C   0  0  0  0  0  0  0  0  0  0  0  0
    1.9774   66.6896   82.5620 C   0  0  0  0  0  0  0  0  0  0  0  0
    2.5148   65.7097   83.4329 C   0  0  0  0  0  0  0  0  0  0  0  0
    3.4231   66.0363   84.4414 C   0  0  0  0  0  0  0  0  0  0  0  0
    3.8312   67.3559   84.5999 C   0  0  0  0  0  0  0  0  0  0  0  0
    3.3249   68.3403   83.7448 C   0  0  0  0  0  0  0  0  0  0  0  0
    2.3935   68.0334   82.7188 C   0  0  0  0  0  0  0  0  0  0  0  0
    0.5771   65.0539   81.3758 N   0  0  0  0  0  0  0  0  0  0  0  0
   -0.5434   64.8316   82.3146 C   0  0  0  0  0  0  0  0  0  0  0  0
   -1.4728   63.7166   81.8272 C   0  0  0  0  0  0  0  0  0  0  0  0
   -0.7099   62.6389   81.0516 C   0  0  0  0  0  0  0  0  0  0  0  0
    0.0359   63.2446   79.8484 C   0  0  0  0  0  0  0  0  0  0  0  0
    0.2399   64.7557   79.9790 C   0  0  0  0  0  0  0  0  0  0  0  0
   -1.6420   61.5251   80.6048 C   0  0  0  0  0  0  0  0  0  0  0  0
   -1.4123   61.0520   79.3457 N   0  0  0  0  0  0  0  0  0  0  0  0
   -2.5374   61.0523   81.2942 O   0  0  0  0  0  0  0  0  0  0  0  0
   -0.5693   61.2667   78.8317 H   0  0  0  0  0  0  0  0  0  0  0  0
   -1.9654   60.2585   79.0471 H   0  0  0  0  0  0  0  0  0  0  0  0
    2.2569   70.3578   81.9821 N   0  0  0  0  0  0  0  0  0  0  0  0
    2.2775   70.5895   82.9714 H   0  0  0  0  0  0  0  0  0  0  0  0
    1.4235   71.2987   81.2425 C   0  0  0  0  0  0  0  0  0  0  0  0
    3.0037   75.2920   81.8736 C   0  0  0  0  0  0  0  0  0  0  0  0
    1.6611   75.0079   82.1450 C   0  0  0  0  0  0  0  0  0  0  0  0
    1.1486   73.7207   81.9398 C   0  0  0  0  0  0  0  0  0  0  0  0
    1.9671   72.6932   81.4555 C   0  0  0  0  0  0  0  0  0  0  0  0
    3.3137   72.9749   81.1878 C   0  0  0  0  0  0  0  0  0  0  0  0
    3.8254   74.2600   81.3937 C   0  0  0  0  0  0  0  0  0  0  0  0
    5.4975   74.5289   81.0397 Cl  0  0  0  0  0  0  0  0  0  0  0  0
    3.8814   76.9333   83.3728 C   0  0  0  0  0  0  0  0  0  0  0  0
    3.5880   76.5197   82.0454 O   0  0  0  0  0  0  0  0  0  0  0  0
    4.7690   67.7032   85.6269 C   0  0  0  0  0  0  0  0  0  0  0  0
    5.5325   67.9768   86.4568 N   0  0  0  0  0  0  0  0  0  0  0  0
 32 33  1  0  0  0
 33 25  1  0  0  0
 25 26  1  0  0  0
 26 27  2  0  0  0
 27 28  1  0  0  0
 28 24  1  0  0  0
 24 22  1  0  0  0
 22  1  1  0  0  0
  1  2  1  0  0  0
  2  3  2  0  0  0
  3  4  1  0  0  0
  4 11  1  0  0  0
 11 12  1  0  0  0
 12 13  1  0  0  0
 13 14  1  0  0  0
 14 17  1  0  0  0
 17 18  1  0  0  0
 17 19  2  0  0  0
 14 15  1  0  0  0
 15 16  1  0  0  0
  4  5  2  0  0  0
  5  6  1  0  0  0
  6  7  2  0  0  0
  7  8  1  0  0  0
  8 34  1  0  0  0
 34 35  3  0  0  0
  8  9  2  0  0  0
  9 10  1  0  0  0
 28 29  2  0  0  0
 29 30  1  0  0  0
 30 31  1  0  0  0
 30 25  2  0  0  0
 10  1  2  0  0  0
 16 11  1  0  0  0
 10  5  1  0  0  0
 22 23  1  0  0  0
 18 20  1  0  0  0
 18 21  1  0  0  0
M  END
> <minimizedAffinity>
-1.25425

$$$$



 35 38  0  0  0  0  0  0  0  0999 V2000
    1.8479   69.0493   81.8153 C   0  0  0  0  0  0  0  0  0  0  0  0
    1.0212   68.6945   80.8123 N   0  0  0  0  0  0  0  0  0  0  0  0
    0.6272   67.3932   80.6465 N   0  0  0  0  0  0  0  0  0  0  0  0
    1.0644   66.4227   81.4760 C   0  0  0  0  0  0  0  0  0  0  0  0
    1.9689   66.7278   82.5170 C   0  0  0  0  0  0  0  0  0  0  0  0
    2.5126   65.7436   83.3792 C   0  0  0  0  0  0  0  0  0  0  0  0
    3.4140   66.0679   84.3946 C   0  0  0  0  0  0  0  0  0  0  0  0
    3.8087   67.3896   84.5690 C   0  0  0  0  0  0  0  0  0  0  0  0
    3.2960   68.3784   83.7228 C   0  0  0  0  0  0  0  0  0  0  0  0
    2.3714   68.0737   82.6900 C   0  0  0  0  0  0  0  0  0  0  0  0
    0.5889   65.0917   81.3077 N   0  0  0  0  0  0  0  0  0  0  0  0
   -0.5552   64.8595   82.2151 C   0  0  0  0  0  0  0  0  0  0  0  0
   -1.4634   63.7394   81.7000 C   0  0  0  0  0  0  0  0  0  0  0  0
   -0.6722   62.6688   80.9430 C   0  0  0  0  0  0  0  0  0  0  0  0
    0.1020   63.2826   79.7621 C   0  0  0  0  0  0  0  0  0  0  0  0
    0.2920   64.7947   79.9016 C   0  0  0  0  0  0  0  0  0  0  0  0
   -1.5841   61.5498   80.4684 C   0  0  0  0  0  0  0  0  0  0  0  0
   -1.4792   61.2443   79.1427 N   0  0  0  0  0  0  0  0  0  0  0  0
   -2.3615   60.9363   81.1894 O   0  0  0  0  0  0  0  0  0  0  0  0
   -0.7177   61.5779   78.5684 H   0  0  0  0  0  0  0  0  0  0  0  0
   -2.0165   60.4528   78.8116 H   0  0  0  0  0  0  0  0  0  0  0  0
    2.2150   70.4046   81.9782 N   0  0  0  0  0  0  0  0  0  0  0  0
    2.1614   70.6448   82.9642 H   0  0  0  0  0  0  0  0  0  0  0  0
    1.4379   71.3376   81.1703 C   0  0  0  0  0  0  0  0  0  0  0  0
    2.8711   75.3678   81.9086 C   0  0  0  0  0  0  0  0  0  0  0  0
    3.7489   74.2801   81.9640 C   0  0  0  0  0  0  0  0  0  0  0  0
    3.2881   72.9786   81.7285 C   0  0  0  0  0  0  0  0  0  0  0  0
    1.9400   72.7384   81.4368 C   0  0  0  0  0  0  0  0  0  0  0  0
    1.0601   73.8277   81.3760 C   0  0  0  0  0  0  0  0  0  0  0  0
    1.5206   75.1272   81.6102 C   0  0  0  0  0  0  0  0  0  0  0  0
    0.3732   76.4188   81.5175 Cl  0  0  0  0  0  0  0  0  0  0  0  0
    3.4224   77.0926   83.4683 C   0  0  0  0  0  0  0  0  0  0  0  0
    3.2349   76.6714   82.1243 O   0  0  0  0  0  0  0  0  0  0  0  0
    4.7393   67.7346   85.6032 C   0  0  0  0  0  0  0  0  0  0  0  0
    5.4988   68.0090   86.4366 N   0  0  0  0  0  0  0  0  0  0  0  0
 32 33  1  0  0  0
 33 25  1  0  0  0
 25 26  1  0  0  0
 26 27  2  0  0  0
 27 28  1  0  0  0
 28 24  1  0  0  0
 24 22  1  0  0  0
 22  1  1  0  0  0
  1  2  1  0  0  0
  2  3  2  0  0  0
  3  4  1  0  0  0
  4 11  1  0  0  0
 11 12  1  0  0  0
 12 13  1  0  0  0
 13 14  1  0  0  0
 14 17  1  0  0  0
 17 18  1  0  0  0
 17 19  2  0  0  0
 14 15  1  0  0  0
 15 16  1  0  0  0
  4  5  2  0  0  0
  5  6  1  0  0  0
  6  7  2  0  0  0
  7  8  1  0  0  0
  8 34  1  0  0  0
 34 35  3  0  0  0
  8  9  2  0  0  0
  9 10  1  0  0  0
 28 29  2  0  0  0
 29 30  1  0  0  0
 30 31  1  0  0  0
 30 25  2  0  0  0
 10  1  2  0  0  0
 16 11  1  0  0  0
 10  5  1  0  0  0
 22 23  1  0  0  0
 18 20  1  0  0  0
 18 21  1  0  0  0
M  END
> <minimizedAffinity>
-1.24038

$$$$



 35 38  0  0  0  0  0  0  0  0999 V2000
    3.9915   73.5842   80.5221 C   0  0  0  0  0  0  0  0  0  0  0  0
    4.6349   72.4007   80.4920 N   0  0  0  0  0  0  0  0  0  0  0  0
    3.9836   71.2331   80.7898 N   0  0  0  0  0  0  0  0  0  0  0  0
    2.6789   71.2325   81.1346 C   0  0  0  0  0  0  0  0  0  0  0  0
    1.9650   72.4477   81.2279 C   0  0  0  0  0  0  0  0  0  0  0  0
    0.6130   72.5176   81.6462 C   0  0  0  0  0  0  0  0  0  0  0  0
   -0.0687   73.7320   81.7413 C   0  0  0  0  0  0  0  0  0  0  0  0
    0.5889   74.9172   81.4317 C   0  0  0  0  0  0  0  0  0  0  0  0
    1.9277   74.8764   81.0282 C   0  0  0  0  0  0  0  0  0  0  0  0
    2.6382   73.6529   80.9152 C   0  0  0  0  0  0  0  0  0  0  0  0
    2.0209   69.9948   81.3819 N   0  0  0  0  0  0  0  0  0  0  0  0
    1.6887   69.3484   80.0943 C   0  0  0  0  0  0  0  0  0  0  0  0
    1.5456   67.8315   80.2469 C   0  0  0  0  0  0  0  0  0  0  0  0
    0.9975   67.4478   81.6243 C   0  0  0  0  0  0  0  0  0  0  0  0
    1.8960   67.9920   82.7501 C   0  0  0  0  0  0  0  0  0  0  0  0
    2.7976   69.1378   82.2852 C   0  0  0  0  0  0  0  0  0  0  0  0
    0.8311   65.9423   81.7455 C   0  0  0  0  0  0  0  0  0  0  0  0
    0.4938   65.3049   80.5871 N   0  0  0  0  0  0  0  0  0  0  0  0
    0.9878   65.3088   82.7822 O   0  0  0  0  0  0  0  0  0  0  0  0
    0.5564   65.7535   79.6839 H   0  0  0  0  0  0  0  0  0  0  0  0
    0.4508   64.2939   80.6169 H   0  0  0  0  0  0  0  0  0  0  0  0
    4.6829   74.7694   80.1826 N   0  0  0  0  0  0  0  0  0  0  0  0
    4.3939   75.0657   79.2545 H   0  0  0  0  0  0  0  0  0  0  0  0
    6.1349   74.6621   80.2682 C   0  0  0  0  0  0  0  0  0  0  0  0
    7.5664   77.6777   83.0429 C   0  0  0  0  0  0  0  0  0  0  0  0
    8.4674   76.8432   82.3733 C   0  0  0  0  0  0  0  0  0  0  0  0
    8.0076   75.8679   81.4794 C   0  0  0  0  0  0  0  0  0  0  0  0
    6.6377   75.7051   81.2403 C   0  0  0  0  0  0  0  0  0  0  0  0
    5.7338   76.5436   81.9066 C   0  0  0  0  0  0  0  0  0  0  0  0
    6.1932   77.5180   82.7984 C   0  0  0  0  0  0  0  0  0  0  0  0
    5.0155   78.5140   83.5822 Cl  0  0  0  0  0  0  0  0  0  0  0  0
    8.9825   78.3701   84.8392 C   0  0  0  0  0  0  0  0  0  0  0  0
    7.9273   78.6564   83.9317 O   0  0  0  0  0  0  0  0  0  0  0  0
   -0.0977   76.1715   81.5323 C   0  0  0  0  0  0  0  0  0  0  0  0
   -0.6478   77.1895   81.6197 N   0  0  0  0  0  0  0  0  0  0  0  0
 32 33  1  0  0  0
 33 25  1  0  0  0
 25 26  1  0  0  0
 26 27  2  0  0  0
 27 28  1  0  0  0
 28 24  1  0  0  0
 24 22  1  0  0  0
 22  1  1  0  0  0
  1  2  1  0  0  0
  2  3  2  0  0  0
  3  4  1  0  0  0
  4 11  1  0  0  0
 11 12  1  0  0  0
 12 13  1  0  0  0
 13 14  1  0  0  0
 14 17  1  0  0  0
 17 18  1  0  0  0
 17 19  2  0  0  0
 14 15  1  0  0  0
 15 16  1  0  0  0
  4  5  2  0  0  0
  5  6  1  0  0  0
  6  7  2  0  0  0
  7  8  1  0  0  0
  8 34  1  0  0  0
 34 35  3  0  0  0
  8  9  2  0  0  0
  9 10  1  0  0  0
 28 29  2  0  0  0
 29 30  1  0  0  0
 30 31  1  0  0  0
 30 25  2  0  0  0
 10  1  2  0  0  0
 16 11  1  0  0  0
 10  5  1  0  0  0
 22 23  1  0  0  0
 18 20  1  0  0  0
 18 21  1  0  0  0
M  END
> <minimizedAffinity>
-1.21164

$$$$



 35 38  0  0  0  0  0  0  0  0999 V2000
    2.2274   72.9348   81.6900 C   0  0  0  0  0  0  0  0  0  0  0  0
    0.9564   72.6932   81.3139 N   0  0  0  0  0  0  0  0  0  0  0  0
    0.1799   73.6806   80.7678 N   0  0  0  0  0  0  0  0  0  0  0  0
    0.6600   74.9306   80.6001 C   0  0  0  0  0  0  0  0  0  0  0  0
    1.9697   75.2540   81.0184 C   0  0  0  0  0  0  0  0  0  0  0  0
    2.5072   76.5619   80.9278 C   0  0  0  0  0  0  0  0  0  0  0  0
    3.8013   76.8599   81.3582 C   0  0  0  0  0  0  0  0  0  0  0  0
    4.5933   75.8568   81.9054 C   0  0  0  0  0  0  0  0  0  0  0  0
    4.0815   74.5599   82.0175 C   0  0  0  0  0  0  0  0  0  0  0  0
    2.7725   74.2314   81.5781 C   0  0  0  0  0  0  0  0  0  0  0  0
   -0.1565   75.9161   79.9770 N   0  0  0  0  0  0  0  0  0  0  0  0
   -0.7150   75.3703   78.7215 C   0  0  0  0  0  0  0  0  0  0  0  0
   -2.0092   76.0856   78.3238 C   0  0  0  0  0  0  0  0  0  0  0  0
   -2.0002   77.5563   78.7505 C   0  0  0  0  0  0  0  0  0  0  0  0
   -1.7875   77.6918   80.2695 C   0  0  0  0  0  0  0  0  0  0  0  0
   -1.1763   76.4362   80.8953 C   0  0  0  0  0  0  0  0  0  0  0  0
   -3.2771   78.2577   78.3187 C   0  0  0  0  0  0  0  0  0  0  0  0
   -3.2923   78.6788   77.0208 N   0  0  0  0  0  0  0  0  0  0  0  0
   -4.2458   78.4430   79.0451 O   0  0  0  0  0  0  0  0  0  0  0  0
   -2.6104   78.3690   76.3427 H   0  0  0  0  0  0  0  0  0  0  0  0
   -4.1568   79.0807   76.6803 H   0  0  0  0  0  0  0  0  0  0  0  0
    3.0136   71.8888   82.2248 N   0  0  0  0  0  0  0  0  0  0  0  0
    3.8737   72.2804   82.5986 H   0  0  0  0  0  0  0  0  0  0  0  0
    3.2961   70.8102   81.2846 C   0  0  0  0  0  0  0  0  0  0  0  0
    2.2344   67.0300   83.1354 C   0  0  0  0  0  0  0  0  0  0  0  0
    1.5367   67.4935   82.0151 C   0  0  0  0  0  0  0  0  0  0  0  0
    1.8760   68.7141   81.4177 C   0  0  0  0  0  0  0  0  0  0  0  0
    2.9169   69.4972   81.9310 C   0  0  0  0  0  0  0  0  0  0  0  0
    3.6202   69.0320   83.0506 C   0  0  0  0  0  0  0  0  0  0  0  0
    3.2819   67.8128   83.6462 C   0  0  0  0  0  0  0  0  0  0  0  0
    4.1966   67.3070   85.0249 Cl  0  0  0  0  0  0  0  0  0  0  0  0
    0.7782   65.1592   83.4373 C   0  0  0  0  0  0  0  0  0  0  0  0
    1.9710   65.8504   83.7814 O   0  0  0  0  0  0  0  0  0  0  0  0
    5.9212   76.1514   82.3578 C   0  0  0  0  0  0  0  0  0  0  0  0
    6.9967   76.3820   82.7278 N   0  0  0  0  0  0  0  0  0  0  0  0
 32 33  1  0  0  0
 33 25  1  0  0  0
 25 26  1  0  0  0
 26 27  2  0  0  0
 27 28  1  0  0  0
 28 24  1  0  0  0
 24 22  1  0  0  0
 22  1  1  0  0  0
  1  2  1  0  0  0
  2  3  2  0  0  0
  3  4  1  0  0  0
  4 11  1  0  0  0
 11 12  1  0  0  0
 12 13  1  0  0  0
 13 14  1  0  0  0
 14 17  1  0  0  0
 17 18  1  0  0  0
 17 19  2  0  0  0
 14 15  1  0  0  0
 15 16  1  0  0  0
  4  5  2  0  0  0
  5  6  1  0  0  0
  6  7  2  0  0  0
  7  8  1  0  0  0
  8 34  1  0  0  0
 34 35  3  0  0  0
  8  9  2  0  0  0
  9 10  1  0  0  0
 28 29  2  0  0  0
 29 30  1  0  0  0
 30 31  1  0  0  0
 30 25  2  0  0  0
 10  1  2  0  0  0
 16 11  1  0  0  0
 10  5  1  0  0  0
 22 23  1  0  0  0
 18 20  1  0  0  0
 18 21  1  0  0  0
M  END
> <minimizedAffinity>
-1.14916

$$$$
