


 40 43  0  0  0  0  0  0  0  0999 V2000
    2.3315   66.9796   83.1145 C   0  0  0  0  0  0  0  0  0  0  0  0
    1.9133   67.9159   82.1584 C   0  0  0  0  0  0  0  0  0  0  0  0
    2.5752   69.1356   82.0521 C   0  0  0  0  0  0  0  0  0  0  0  0
    3.6824   69.3633   82.8434 C   0  0  0  0  0  0  0  0  0  0  0  0
    4.1277   68.4714   83.7611 N   0  0  0  0  0  0  0  0  0  0  0  0
    3.4464   67.3059   83.8910 C   0  0  0  0  0  0  0  0  0  0  0  0
   -0.0513   63.0169   81.5389 C   0  0  0  0  0  0  0  0  0  0  0  0
    0.4414   63.9165   82.4475 C   0  0  0  0  0  0  0  0  0  0  0  0
    1.2205   65.0465   82.2021 N   0  0  0  0  0  0  0  0  0  0  0  0
    1.5180   65.7351   83.2694 C   0  0  0  0  0  0  0  0  0  0  0  0
    1.1238   65.3889   84.5563 N   0  0  0  0  0  0  0  0  0  0  0  0
    0.3499   64.2901   84.8814 C   0  0  0  0  0  0  0  0  0  0  0  0
    0.0206   64.0527   86.0398 O   0  0  0  0  0  0  0  0  0  0  0  0
    0.0016   63.5163   83.7111 C   0  0  0  0  0  0  0  0  0  0  0  0
   -0.7351   62.4002   83.6399 N   0  0  0  0  0  0  0  0  0  0  0  0
   -0.7527   62.1131   82.3108 N   0  0  0  0  0  0  0  0  0  0  0  0
    1.3622   65.9783   85.3430 H   0  0  0  0  0  0  0  0  0  0  0  0
   -0.5315   64.1838   79.3853 C   0  0  0  0  0  0  0  0  0  0  0  0
    0.0903   62.9669   80.0565 C   0  0  0  0  0  0  0  0  0  0  0  0
   -1.4467   60.9046   81.8906 C   0  0  0  0  0  0  0  0  0  0  0  0
   -2.8485   61.1986   81.3656 C   0  0  0  0  0  0  0  0  0  0  0  0
   -3.1897   60.3697   80.2488 O   0  0  0  0  0  0  0  0  0  0  0  0
   -3.3668   61.1023   79.0430 C   0  0  0  0  0  0  0  0  0  0  0  0
    2.0542   70.3631   80.8980 S   0  0  0  0  0  0  0  0  0  0  0  0
    0.7053   70.0247   80.5000 O   0  0  0  0  0  0  0  0  0  0  0  0
    3.1128   70.5018   79.9209 O   0  0  0  0  0  0  0  0  0  0  0  0
    2.0045   71.7805   81.8130 N   0  0  0  0  0  0  0  0  0  0  0  0
    3.1218   72.7522   81.6563 C   0  0  0  0  0  0  0  0  0  0  0  0
    2.8058   74.0898   82.3510 C   0  0  0  0  0  0  0  0  0  0  0  0
    1.5806   74.7603   81.8656 N   0  0  0  0  0  0  0  0  0  0  0  0
    0.5649   73.7786   81.4228 C   0  0  0  0  0  0  0  0  0  0  0  0
    0.6819   72.4007   82.1018 C   0  0  0  0  0  0  0  0  0  0  0  0
    1.8312   75.7485   80.8064 C   0  0  0  0  0  0  0  0  0  0  0  0
    2.1746   77.1286   81.3568 C   0  0  0  0  0  0  0  0  0  0  0  0
    3.8827   66.3984   84.8354 O   0  0  0  0  0  0  0  0  0  0  0  0
    5.1564   66.6814   85.4457 C   0  0  0  0  0  0  0  0  0  0  0  0
    5.1935   66.1040   86.8612 C   0  0  0  0  0  0  0  0  0  0  0  0
    6.2319   66.0206   84.5632 C   0  0  0  0  0  0  0  0  0  0  0  0
    7.4857   65.8550   85.2234 O   0  0  0  0  0  0  0  0  0  0  0  0
    8.4578   66.8148   84.8302 C   0  0  0  0  0  0  0  0  0  0  0  0
 18 19  1  0  0  0
 19  7  1  0  0  0
  7  8  2  0  0  0
  8  9  1  0  0  0
  9 10  2  0  0  0
 10  1  1  0  0  0
  1  2  1  0  0  0
  2  3  2  0  0  0
  3 24  1  0  0  0
 24 25  2  0  0  0
 24 26  2  0  0  0
 24 27  1  0  0  0
 27 28  1  0  0  0
 28 29  1  0  0  0
 29 30  1  0  0  0
 30 33  1  0  0  0
 33 34  1  0  0  0
 30 31  1  0  0  0
 31 32  1  0  0  0
  3  4  1  0  0  0
  4  5  2  0  0  0
  5  6  1  0  0  0
  6 35  1  0  0  0
 35 36  1  0  0  0
 36 37  1  0  0  0
 36 38  1  0  0  0
 38 39  1  0  0  0
 39 40  1  0  0  0
 10 11  1  0  0  0
 11 12  1  0  0  0
 12 13  2  0  0  0
 12 14  1  0  0  0
 14 15  2  0  0  0
 15 16  1  0  0  0
 16 20  1  0  0  0
 20 21  1  0  0  0
 21 22  1  0  0  0
 22 23  1  0  0  0
 16  7  1  0  0  0
 14  8  1  0  0  0
  6  1  2  0  0  0
 32 27  1  0  0  0
 11 17  1  0  0  0
M  END
> <minimizedAffinity>
-2.12979

$$$$



 40 43  0  0  0  0  0  0  0  0999 V2000
    1.1756   67.2464   81.3208 C   0  0  0  0  0  0  0  0  0  0  0  0
    0.7655   66.5504   80.1748 C   0  0  0  0  0  0  0  0  0  0  0  0
    0.5343   65.1798   80.2461 C   0  0  0  0  0  0  0  0  0  0  0  0
    0.6409   64.5496   81.4689 C   0  0  0  0  0  0  0  0  0  0  0  0
    1.0124   65.1956   82.6005 N   0  0  0  0  0  0  0  0  0  0  0  0
    1.2827   66.5217   82.5106 C   0  0  0  0  0  0  0  0  0  0  0  0
    0.2192   72.0270   81.0146 C   0  0  0  0  0  0  0  0  0  0  0  0
    0.9855   70.8913   81.0420 C   0  0  0  0  0  0  0  0  0  0  0  0
    0.5634   69.5740   81.2169 N   0  0  0  0  0  0  0  0  0  0  0  0
    1.5234   68.6921   81.1676 C   0  0  0  0  0  0  0  0  0  0  0  0
    2.8634   69.0074   80.9775 N   0  0  0  0  0  0  0  0  0  0  0  0
    3.3606   70.2843   80.7931 C   0  0  0  0  0  0  0  0  0  0  0  0
    4.5567   70.4910   80.6107 O   0  0  0  0  0  0  0  0  0  0  0  0
    2.3115   71.2780   80.8361 C   0  0  0  0  0  0  0  0  0  0  0  0
    2.4155   72.6052   80.6921 N   0  0  0  0  0  0  0  0  0  0  0  0
    1.1323   73.0407   80.8060 N   0  0  0  0  0  0  0  0  0  0  0  0
    3.5604   68.2764   80.9207 H   0  0  0  0  0  0  0  0  0  0  0  0
   -1.9346   72.4294   79.8190 C   0  0  0  0  0  0  0  0  0  0  0  0
   -1.2533   72.2013   81.1612 C   0  0  0  0  0  0  0  0  0  0  0  0
    0.8984   74.4759   80.7417 C   0  0  0  0  0  0  0  0  0  0  0  0
    0.9072   75.1232   82.1230 C   0  0  0  0  0  0  0  0  0  0  0  0
    0.9057   76.5532   82.0472 O   0  0  0  0  0  0  0  0  0  0  0  0
    2.0925   77.1411   82.5649 C   0  0  0  0  0  0  0  0  0  0  0  0
    0.0646   64.2546   78.8201 S   0  0  0  0  0  0  0  0  0  0  0  0
    1.2846   63.8645   78.1478 O   0  0  0  0  0  0  0  0  0  0  0  0
   -0.9574   65.0189   78.1376 O   0  0  0  0  0  0  0  0  0  0  0  0
   -0.6621   62.8718   79.4590 N   0  0  0  0  0  0  0  0  0  0  0  0
   -2.1489   62.8356   79.5339 C   0  0  0  0  0  0  0  0  0  0  0  0
   -2.6601   61.4278   79.8922 C   0  0  0  0  0  0  0  0  0  0  0  0
   -2.2505   60.3662   78.9480 N   0  0  0  0  0  0  0  0  0  0  0  0
   -0.9296   60.6566   78.3461 C   0  0  0  0  0  0  0  0  0  0  0  0
   -0.0233   61.5490   79.2153 C   0  0  0  0  0  0  0  0  0  0  0  0
   -3.2429   60.0991   77.8968 C   0  0  0  0  0  0  0  0  0  0  0  0
   -2.6300   60.0707   76.5007 C   0  0  0  0  0  0  0  0  0  0  0  0
    1.6784   67.1846   83.6551 O   0  0  0  0  0  0  0  0  0  0  0  0
    3.0908   67.1736   83.9378 C   0  0  0  0  0  0  0  0  0  0  0  0
    3.4894   68.4716   84.6412 C   0  0  0  0  0  0  0  0  0  0  0  0
    3.3551   65.9607   84.8495 C   0  0  0  0  0  0  0  0  0  0  0  0
    4.7417   65.7004   85.0612 O   0  0  0  0  0  0  0  0  0  0  0  0
    5.0847   65.5699   86.4345 C   0  0  0  0  0  0  0  0  0  0  0  0
 18 19  1  0  0  0
 19  7  1  0  0  0
  7  8  2  0  0  0
  8  9  1  0  0  0
  9 10  2  0  0  0
 10  1  1  0  0  0
  1  2  1  0  0  0
  2  3  2  0  0  0
  3 24  1  0  0  0
 24 25  2  0  0  0
 24 26  2  0  0  0
 24 27  1  0  0  0
 27 28  1  0  0  0
 28 29  1  0  0  0
 29 30  1  0  0  0
 30 33  1  0  0  0
 33 34  1  0  0  0
 30 31  1  0  0  0
 31 32  1  0  0  0
  3  4  1  0  0  0
  4  5  2  0  0  0
  5  6  1  0  0  0
  6 35  1  0  0  0
 35 36  1  0  0  0
 36 37  1  0  0  0
 36 38  1  0  0  0
 38 39  1  0  0  0
 39 40  1  0  0  0
 10 11  1  0  0  0
 11 12  1  0  0  0
 12 13  2  0  0  0
 12 14  1  0  0  0
 14 15  2  0  0  0
 15 16  1  0  0  0
 16 20  1  0  0  0
 20 21  1  0  0  0
 21 22  1  0  0  0
 22 23  1  0  0  0
 16  7  1  0  0  0
 14  8  1  0  0  0
  6  1  2  0  0  0
 32 27  1  0  0  0
 11 17  1  0  0  0
M  END
> <minimizedAffinity>
-1.80387

$$$$



 40 43  0  0  0  0  0  0  0  0999 V2000
    1.9095   67.8666   82.0399 C   0  0  0  0  0  0  0  0  0  0  0  0
    1.5164   69.1172   81.5428 C   0  0  0  0  0  0  0  0  0  0  0  0
    2.0276   70.2784   82.1149 C   0  0  0  0  0  0  0  0  0  0  0  0
    2.9738   70.1679   83.1131 C   0  0  0  0  0  0  0  0  0  0  0  0
    3.3933   68.9757   83.6014 N   0  0  0  0  0  0  0  0  0  0  0  0
    2.8529   67.8507   83.0705 C   0  0  0  0  0  0  0  0  0  0  0  0
   -0.6280   63.6972   82.2424 C   0  0  0  0  0  0  0  0  0  0  0  0
    0.0576   64.7318   81.6615 C   0  0  0  0  0  0  0  0  0  0  0  0
    0.6246   65.8434   82.2835 N   0  0  0  0  0  0  0  0  0  0  0  0
    1.2457   66.6538   81.4715 C   0  0  0  0  0  0  0  0  0  0  0  0
    1.3364   66.4639   80.0979 N   0  0  0  0  0  0  0  0  0  0  0  0
    0.8064   65.3892   79.4078 C   0  0  0  0  0  0  0  0  0  0  0  0
    0.9400   65.2729   78.1932 O   0  0  0  0  0  0  0  0  0  0  0  0
    0.1196   64.4732   80.2906 C   0  0  0  0  0  0  0  0  0  0  0  0
   -0.5053   63.3299   79.9814 N   0  0  0  0  0  0  0  0  0  0  0  0
   -0.9538   62.8759   81.1822 N   0  0  0  0  0  0  0  0  0  0  0  0
    1.8558   67.1136   79.5223 H   0  0  0  0  0  0  0  0  0  0  0  0
   -0.0785   62.3841   84.2927 C   0  0  0  0  0  0  0  0  0  0  0  0
   -0.9715   63.4488   83.6708 C   0  0  0  0  0  0  0  0  0  0  0  0
   -1.7338   61.6470   81.1905 C   0  0  0  0  0  0  0  0  0  0  0  0
   -1.6614   60.9100   79.8569 C   0  0  0  0  0  0  0  0  0  0  0  0
   -2.9511   60.4754   79.4115 O   0  0  0  0  0  0  0  0  0  0  0  0
   -3.1618   60.6853   78.0209 C   0  0  0  0  0  0  0  0  0  0  0  0
    1.5249   71.8735   81.5552 S   0  0  0  0  0  0  0  0  0  0  0  0
    0.3314   72.2244   82.2933 O   0  0  0  0  0  0  0  0  0  0  0  0
    1.5287   71.8349   80.1085 O   0  0  0  0  0  0  0  0  0  0  0  0
    2.7800   72.8876   82.0500 N   0  0  0  0  0  0  0  0  0  0  0  0
    3.8666   73.1806   81.0749 C   0  0  0  0  0  0  0  0  0  0  0  0
    4.7859   74.3086   81.5789 C   0  0  0  0  0  0  0  0  0  0  0  0
    4.0963   75.5877   81.8525 N   0  0  0  0  0  0  0  0  0  0  0  0
    2.7047   75.3667   82.3063 C   0  0  0  0  0  0  0  0  0  0  0  0
    2.4723   74.0040   82.9862 C   0  0  0  0  0  0  0  0  0  0  0  0
    4.1210   76.5233   80.7188 C   0  0  0  0  0  0  0  0  0  0  0  0
    2.7586   76.6770   80.0512 C   0  0  0  0  0  0  0  0  0  0  0  0
    3.2618   66.6319   83.5737 O   0  0  0  0  0  0  0  0  0  0  0  0
    4.0827   66.6774   84.7564 C   0  0  0  0  0  0  0  0  0  0  0  0
    3.7606   65.4850   85.6580 C   0  0  0  0  0  0  0  0  0  0  0  0
    5.5482   66.6202   84.2863 C   0  0  0  0  0  0  0  0  0  0  0  0
    6.4895   66.8742   85.3278 O   0  0  0  0  0  0  0  0  0  0  0  0
    7.5842   65.9673   85.3280 C   0  0  0  0  0  0  0  0  0  0  0  0
 18 19  1  0  0  0
 19  7  1  0  0  0
  7  8  2  0  0  0
  8  9  1  0  0  0
  9 10  2  0  0  0
 10  1  1  0  0  0
  1  2  1  0  0  0
  2  3  2  0  0  0
  3 24  1  0  0  0
 24 25  2  0  0  0
 24 26  2  0  0  0
 24 27  1  0  0  0
 27 28  1  0  0  0
 28 29  1  0  0  0
 29 30  1  0  0  0
 30 33  1  0  0  0
 33 34  1  0  0  0
 30 31  1  0  0  0
 31 32  1  0  0  0
  3  4  1  0  0  0
  4  5  2  0  0  0
  5  6  1  0  0  0
  6 35  1  0  0  0
 35 36  1  0  0  0
 36 37  1  0  0  0
 36 38  1  0  0  0
 38 39  1  0  0  0
 39 40  1  0  0  0
 10 11  1  0  0  0
 11 12  1  0  0  0
 12 13  2  0  0  0
 12 14  1  0  0  0
 14 15  2  0  0  0
 15 16  1  0  0  0
 16 20  1  0  0  0
 20 21  1  0  0  0
 21 22  1  0  0  0
 22 23  1  0  0  0
 16  7  1  0  0  0
 14  8  1  0  0  0
  6  1  2  0  0  0
 32 27  1  0  0  0
 11 17  1  0  0  0
M  END
> <minimizedAffinity>
-1.71743

$$$$



 40 43  0  0  0  0  0  0  0  0999 V2000
    2.4276   68.7017   81.8582 C   0  0  0  0  0  0  0  0  0  0  0  0
    1.4628   68.0997   81.0383 C   0  0  0  0  0  0  0  0  0  0  0  0
    1.0828   66.7817   81.2738 C   0  0  0  0  0  0  0  0  0  0  0  0
    1.6125   66.1208   82.3631 C   0  0  0  0  0  0  0  0  0  0  0  0
    2.5294   66.6799   83.1893 N   0  0  0  0  0  0  0  0  0  0  0  0
    2.9293   67.9481   82.9225 C   0  0  0  0  0  0  0  0  0  0  0  0
    2.0980   73.5704   81.6343 C   0  0  0  0  0  0  0  0  0  0  0  0
    2.6517   72.3317   81.4427 C   0  0  0  0  0  0  0  0  0  0  0  0
    2.1504   71.0947   81.8461 N   0  0  0  0  0  0  0  0  0  0  0  0
    2.8871   70.0770   81.4948 C   0  0  0  0  0  0  0  0  0  0  0  0
    4.0829   70.1841   80.7951 N   0  0  0  0  0  0  0  0  0  0  0  0
    4.6437   71.3697   80.3572 C   0  0  0  0  0  0  0  0  0  0  0  0
    5.6959   71.3913   79.7255 O   0  0  0  0  0  0  0  0  0  0  0  0
    3.8386   72.5113   80.7292 C   0  0  0  0  0  0  0  0  0  0  0  0
    4.0624   73.8066   80.4734 N   0  0  0  0  0  0  0  0  0  0  0  0
    2.9932   74.4325   81.0341 N   0  0  0  0  0  0  0  0  0  0  0  0
    4.5972   69.3554   80.5263 H   0  0  0  0  0  0  0  0  0  0  0  0
   -0.3152   74.1281   81.3253 C   0  0  0  0  0  0  0  0  0  0  0  0
    0.8322   73.9671   82.3129 C   0  0  0  0  0  0  0  0  0  0  0  0
    2.9535   75.8862   80.9724 C   0  0  0  0  0  0  0  0  0  0  0  0
    3.6145   76.5324   82.1859 C   0  0  0  0  0  0  0  0  0  0  0  0
    3.1779   77.8821   82.3815 O   0  0  0  0  0  0  0  0  0  0  0  0
    2.0369   77.9835   83.2240 C   0  0  0  0  0  0  0  0  0  0  0  0
   -0.0907   65.9677   80.2391 S   0  0  0  0  0  0  0  0  0  0  0  0
    0.5197   65.8281   78.9351 O   0  0  0  0  0  0  0  0  0  0  0  0
   -1.3526   66.6560   80.4076 O   0  0  0  0  0  0  0  0  0  0  0  0
   -0.2403   64.4346   80.9290 N   0  0  0  0  0  0  0  0  0  0  0  0
   -1.4562   64.1497   81.7400 C   0  0  0  0  0  0  0  0  0  0  0  0
   -1.5681   62.6516   82.0790 C   0  0  0  0  0  0  0  0  0  0  0  0
   -1.6156   61.7570   80.9026 N   0  0  0  0  0  0  0  0  0  0  0  0
   -0.8403   62.3103   79.7694 C   0  0  0  0  0  0  0  0  0  0  0  0
    0.2979   63.2602   80.1885 C   0  0  0  0  0  0  0  0  0  0  0  0
   -2.9812   61.4234   80.4723 C   0  0  0  0  0  0  0  0  0  0  0  0
   -3.0156   60.6884   79.1366 C   0  0  0  0  0  0  0  0  0  0  0  0
    3.8759   68.5197   83.7490 O   0  0  0  0  0  0  0  0  0  0  0  0
    4.7531   67.6062   84.4351 C   0  0  0  0  0  0  0  0  0  0  0  0
    6.1941   67.8230   83.9712 C   0  0  0  0  0  0  0  0  0  0  0  0
    4.6188   67.9026   85.9406 C   0  0  0  0  0  0  0  0  0  0  0  0
    5.4202   67.0538   86.7606 O   0  0  0  0  0  0  0  0  0  0  0  0
    5.0794   65.6785   86.6461 C   0  0  0  0  0  0  0  0  0  0  0  0
 18 19  1  0  0  0
 19  7  1  0  0  0
  7  8  2  0  0  0
  8  9  1  0  0  0
  9 10  2  0  0  0
 10  1  1  0  0  0
  1  2  1  0  0  0
  2  3  2  0  0  0
  3 24  1  0  0  0
 24 25  2  0  0  0
 24 26  2  0  0  0
 24 27  1  0  0  0
 27 28  1  0  0  0
 28 29  1  0  0  0
 29 30  1  0  0  0
 30 33  1  0  0  0
 33 34  1  0  0  0
 30 31  1  0  0  0
 31 32  1  0  0  0
  3  4  1  0  0  0
  4  5  2  0  0  0
  5  6  1  0  0  0
  6 35  1  0  0  0
 35 36  1  0  0  0
 36 37  1  0  0  0
 36 38  1  0  0  0
 38 39  1  0  0  0
 39 40  1  0  0  0
 10 11  1  0  0  0
 11 12  1  0  0  0
 12 13  2  0  0  0
 12 14  1  0  0  0
 14 15  2  0  0  0
 15 16  1  0  0  0
 16 20  1  0  0  0
 20 21  1  0  0  0
 21 22  1  0  0  0
 22 23  1  0  0  0
 16  7  1  0  0  0
 14  8  1  0  0  0
  6  1  2  0  0  0
 32 27  1  0  0  0
 11 17  1  0  0  0
M  END
> <minimizedAffinity>
-1.68335

$$$$



 40 43  0  0  0  0  0  0  0  0999 V2000
    3.5655   72.0853   80.9741 C   0  0  0  0  0  0  0  0  0  0  0  0
    4.7413   72.1006   80.2105 C   0  0  0  0  0  0  0  0  0  0  0  0
    5.2433   73.3110   79.7414 C   0  0  0  0  0  0  0  0  0  0  0  0
    4.6093   74.4809   80.1068 C   0  0  0  0  0  0  0  0  0  0  0  0
    3.4849   74.5041   80.8624 N   0  0  0  0  0  0  0  0  0  0  0  0
    2.9761   73.3161   81.2739 C   0  0  0  0  0  0  0  0  0  0  0  0
    3.1743   68.0584   83.7116 C   0  0  0  0  0  0  0  0  0  0  0  0
    2.8877   68.9221   82.6871 C   0  0  0  0  0  0  0  0  0  0  0  0
    3.4586   70.1676   82.4282 N   0  0  0  0  0  0  0  0  0  0  0  0
    3.0030   70.7539   81.3556 C   0  0  0  0  0  0  0  0  0  0  0  0
    2.0205   70.2186   80.5314 N   0  0  0  0  0  0  0  0  0  0  0  0
    1.4096   68.9921   80.7168 C   0  0  0  0  0  0  0  0  0  0  0  0
    0.5605   68.5696   79.9376 O   0  0  0  0  0  0  0  0  0  0  0  0
    1.9059   68.3206   81.8969 C   0  0  0  0  0  0  0  0  0  0  0  0
    1.5538   67.1238   82.3839 N   0  0  0  0  0  0  0  0  0  0  0  0
    2.3356   66.9854   83.4879 N   0  0  0  0  0  0  0  0  0  0  0  0
    1.7268   70.7086   79.6965 H   0  0  0  0  0  0  0  0  0  0  0  0
    5.4067   67.3572   84.5804 C   0  0  0  0  0  0  0  0  0  0  0  0
    4.1500   68.1792   84.8312 C   0  0  0  0  0  0  0  0  0  0  0  0
    2.1614   65.7846   84.2919 C   0  0  0  0  0  0  0  0  0  0  0  0
    0.8304   65.0932   84.0136 C   0  0  0  0  0  0  0  0  0  0  0  0
    0.5634   64.0430   84.9497 O   0  0  0  0  0  0  0  0  0  0  0  0
   -0.4027   63.1103   84.4820 C   0  0  0  0  0  0  0  0  0  0  0  0
    6.6913   73.3746   78.7369 S   0  0  0  0  0  0  0  0  0  0  0  0
    6.3020   73.9519   77.4690 O   0  0  0  0  0  0  0  0  0  0  0  0
    7.3135   72.0699   78.8083 O   0  0  0  0  0  0  0  0  0  0  0  0
    7.6915   74.4705   79.5415 N   0  0  0  0  0  0  0  0  0  0  0  0
    7.5320   75.9183   79.2322 C   0  0  0  0  0  0  0  0  0  0  0  0
    8.3225   76.7953   80.2209 C   0  0  0  0  0  0  0  0  0  0  0  0
    7.9469   76.6140   81.6396 N   0  0  0  0  0  0  0  0  0  0  0  0
    7.5026   75.2280   81.9095 C   0  0  0  0  0  0  0  0  0  0  0  0
    8.0899   74.1789   80.9463 C   0  0  0  0  0  0  0  0  0  0  0  0
    6.9370   77.5743   82.1078 C   0  0  0  0  0  0  0  0  0  0  0  0
    6.5296   77.3410   83.5587 C   0  0  0  0  0  0  0  0  0  0  0  0
    1.8210   73.3293   82.0298 O   0  0  0  0  0  0  0  0  0  0  0  0
    0.6989   74.0306   81.4607 C   0  0  0  0  0  0  0  0  0  0  0  0
   -0.4992   73.0871   81.3467 C   0  0  0  0  0  0  0  0  0  0  0  0
    0.3769   75.2023   82.4071 C   0  0  0  0  0  0  0  0  0  0  0  0
    0.1081   76.4262   81.7252 O   0  0  0  0  0  0  0  0  0  0  0  0
   -0.2745   77.4817   82.5970 C   0  0  0  0  0  0  0  0  0  0  0  0
 18 19  1  0  0  0
 19  7  1  0  0  0
  7  8  2  0  0  0
  8  9  1  0  0  0
  9 10  2  0  0  0
 10  1  1  0  0  0
  1  2  1  0  0  0
  2  3  2  0  0  0
  3 24  1  0  0  0
 24 25  2  0  0  0
 24 26  2  0  0  0
 24 27  1  0  0  0
 27 28  1  0  0  0
 28 29  1  0  0  0
 29 30  1  0  0  0
 30 33  1  0  0  0
 33 34  1  0  0  0
 30 31  1  0  0  0
 31 32  1  0  0  0
  3  4  1  0  0  0
  4  5  2  0  0  0
  5  6  1  0  0  0
  6 35  1  0  0  0
 35 36  1  0  0  0
 36 37  1  0  0  0
 36 38  1  0  0  0
 38 39  1  0  0  0
 39 40  1  0  0  0
 10 11  1  0  0  0
 11 12  1  0  0  0
 12 13  2  0  0  0
 12 14  1  0  0  0
 14 15  2  0  0  0
 15 16  1  0  0  0
 16 20  1  0  0  0
 20 21  1  0  0  0
 21 22  1  0  0  0
 22 23  1  0  0  0
 16  7  1  0  0  0
 14  8  1  0  0  0
  6  1  2  0  0  0
 32 27  1  0  0  0
 11 17  1  0  0  0
M  END
> <minimizedAffinity>
-1.67282

$$$$



 40 43  0  0  0  0  0  0  0  0999 V2000
    1.8893   73.1451   81.3417 C   0  0  0  0  0  0  0  0  0  0  0  0
    2.1996   71.7854   81.1978 C   0  0  0  0  0  0  0  0  0  0  0  0
    1.1738   70.8472   81.1310 C   0  0  0  0  0  0  0  0  0  0  0  0
   -0.1334   71.2890   81.1308 C   0  0  0  0  0  0  0  0  0  0  0  0
   -0.4687   72.5968   81.2452 N   0  0  0  0  0  0  0  0  0  0  0  0
    0.5377   73.4990   81.3587 C   0  0  0  0  0  0  0  0  0  0  0  0
    5.8856   75.5973   79.9710 C   0  0  0  0  0  0  0  0  0  0  0  0
    4.8702   75.1995   80.8007 C   0  0  0  0  0  0  0  0  0  0  0  0
    3.8325   74.3105   80.5236 N   0  0  0  0  0  0  0  0  0  0  0  0
    3.0242   74.1004   81.5258 C   0  0  0  0  0  0  0  0  0  0  0  0
    3.1483   74.7088   82.7690 N   0  0  0  0  0  0  0  0  0  0  0  0
    4.1481   75.5958   83.1231 C   0  0  0  0  0  0  0  0  0  0  0  0
    4.2100   76.0830   84.2480 O   0  0  0  0  0  0  0  0  0  0  0  0
    5.0610   75.8372   82.0284 C   0  0  0  0  0  0  0  0  0  0  0  0
    6.1427   76.6262   82.0050 N   0  0  0  0  0  0  0  0  0  0  0  0
    6.6275   76.4668   80.7446 N   0  0  0  0  0  0  0  0  0  0  0  0
    2.5056   74.4848   83.5174 H   0  0  0  0  0  0  0  0  0  0  0  0
    6.8057   73.8316   78.4656 C   0  0  0  0  0  0  0  0  0  0  0  0
    6.1844   75.2182   78.5613 C   0  0  0  0  0  0  0  0  0  0  0  0
    7.8006   77.2425   80.3695 C   0  0  0  0  0  0  0  0  0  0  0  0
    7.9524   78.5027   81.2157 C   0  0  0  0  0  0  0  0  0  0  0  0
    9.2471   78.5918   81.8210 O   0  0  0  0  0  0  0  0  0  0  0  0
    9.2048   78.5337   83.2412 C   0  0  0  0  0  0  0  0  0  0  0  0
    1.5169   69.1224   80.9990 S   0  0  0  0  0  0  0  0  0  0  0  0
    2.7717   68.9932   80.2910 O   0  0  0  0  0  0  0  0  0  0  0  0
    0.3113   68.4871   80.5119 O   0  0  0  0  0  0  0  0  0  0  0  0
    1.7500   68.6349   82.5980 N   0  0  0  0  0  0  0  0  0  0  0  0
    1.6691   67.1797   82.9032 C   0  0  0  0  0  0  0  0  0  0  0  0
    2.1535   66.8769   84.3333 C   0  0  0  0  0  0  0  0  0  0  0  0
    3.5424   67.2993   84.6143 N   0  0  0  0  0  0  0  0  0  0  0  0
    3.9106   68.5033   83.8356 C   0  0  0  0  0  0  0  0  0  0  0  0
    2.7140   69.3911   83.4442 C   0  0  0  0  0  0  0  0  0  0  0  0
    4.5343   66.2342   84.4071 C   0  0  0  0  0  0  0  0  0  0  0  0
    5.9074   66.5902   84.9669 C   0  0  0  0  0  0  0  0  0  0  0  0
    0.2050   74.8320   81.4929 O   0  0  0  0  0  0  0  0  0  0  0  0
   -0.7444   75.3476   80.5402 C   0  0  0  0  0  0  0  0  0  0  0  0
   -1.3182   76.6725   81.0443 C   0  0  0  0  0  0  0  0  0  0  0  0
    0.0170   75.5558   79.2177 C   0  0  0  0  0  0  0  0  0  0  0  0
    0.0239   76.9114   78.7732 O   0  0  0  0  0  0  0  0  0  0  0  0
    1.3233   77.3897   78.4516 C   0  0  0  0  0  0  0  0  0  0  0  0
 18 19  1  0  0  0
 19  7  1  0  0  0
  7  8  2  0  0  0
  8  9  1  0  0  0
  9 10  2  0  0  0
 10  1  1  0  0  0
  1  2  1  0  0  0
  2  3  2  0  0  0
  3 24  1  0  0  0
 24 25  2  0  0  0
 24 26  2  0  0  0
 24 27  1  0  0  0
 27 28  1  0  0  0
 28 29  1  0  0  0
 29 30  1  0  0  0
 30 33  1  0  0  0
 33 34  1  0  0  0
 30 31  1  0  0  0
 31 32  1  0  0  0
  3  4  1  0  0  0
  4  5  2  0  0  0
  5  6  1  0  0  0
  6 35  1  0  0  0
 35 36  1  0  0  0
 36 37  1  0  0  0
 36 38  1  0  0  0
 38 39  1  0  0  0
 39 40  1  0  0  0
 10 11  1  0  0  0
 11 12  1  0  0  0
 12 13  2  0  0  0
 12 14  1  0  0  0
 14 15  2  0  0  0
 15 16  1  0  0  0
 16 20  1  0  0  0
 20 21  1  0  0  0
 21 22  1  0  0  0
 22 23  1  0  0  0
 16  7  1  0  0  0
 14  8  1  0  0  0
  6  1  2  0  0  0
 32 27  1  0  0  0
 11 17  1  0  0  0
M  END
> <minimizedAffinity>
-1.63046

$$$$



 40 43  0  0  0  0  0  0  0  0999 V2000
    2.3489   68.8323   81.8977 C   0  0  0  0  0  0  0  0  0  0  0  0
    1.4251   68.2241   81.0360 C   0  0  0  0  0  0  0  0  0  0  0  0
    1.1649   66.8620   81.1541 C   0  0  0  0  0  0  0  0  0  0  0  0
    1.7693   66.1548   82.1732 C   0  0  0  0  0  0  0  0  0  0  0  0
    2.6490   66.7156   83.0378 N   0  0  0  0  0  0  0  0  0  0  0  0
    2.9329   68.0329   82.8838 C   0  0  0  0  0  0  0  0  0  0  0  0
    5.0584   72.5343   80.2195 C   0  0  0  0  0  0  0  0  0  0  0  0
    3.9997   71.9230   80.8384 C   0  0  0  0  0  0  0  0  0  0  0  0
    3.7660   70.5569   80.9919 N   0  0  0  0  0  0  0  0  0  0  0  0
    2.6810   70.2697   81.6567 C   0  0  0  0  0  0  0  0  0  0  0  0
    1.8030   71.2194   82.1649 N   0  0  0  0  0  0  0  0  0  0  0  0
    1.9651   72.5885   82.0588 C   0  0  0  0  0  0  0  0  0  0  0  0
    1.1590   73.3737   82.5491 O   0  0  0  0  0  0  0  0  0  0  0  0
    3.1670   72.9297   81.3316 C   0  0  0  0  0  0  0  0  0  0  0  0
    3.6474   74.1455   81.0412 N   0  0  0  0  0  0  0  0  0  0  0  0
    4.7964   73.8817   80.3634 N   0  0  0  0  0  0  0  0  0  0  0  0
    0.9906   70.9358   82.6969 H   0  0  0  0  0  0  0  0  0  0  0  0
    6.2164   72.1891   78.0354 C   0  0  0  0  0  0  0  0  0  0  0  0
    6.2473   71.9487   79.5385 C   0  0  0  0  0  0  0  0  0  0  0  0
    5.5543   75.0147   79.8531 C   0  0  0  0  0  0  0  0  0  0  0  0
    5.8576   76.0412   80.9400 C   0  0  0  0  0  0  0  0  0  0  0  0
    7.2603   76.1400   81.2106 O   0  0  0  0  0  0  0  0  0  0  0  0
    7.6386   77.4026   81.7442 C   0  0  0  0  0  0  0  0  0  0  0  0
    0.0479   66.0445   80.0613 S   0  0  0  0  0  0  0  0  0  0  0  0
    0.7278   65.8978   78.7929 O   0  0  0  0  0  0  0  0  0  0  0  0
   -1.2201   66.7353   80.1579 O   0  0  0  0  0  0  0  0  0  0  0  0
   -0.1413   64.5150   80.7493 N   0  0  0  0  0  0  0  0  0  0  0  0
   -1.3320   64.2799   81.6119 C   0  0  0  0  0  0  0  0  0  0  0  0
   -1.4974   62.7862   81.9479 C   0  0  0  0  0  0  0  0  0  0  0  0
   -1.6375   61.9030   80.7703 N   0  0  0  0  0  0  0  0  0  0  0  0
   -0.8882   62.4285   79.6067 C   0  0  0  0  0  0  0  0  0  0  0  0
    0.3096   63.3226   79.9799 C   0  0  0  0  0  0  0  0  0  0  0  0
   -3.0345   61.6349   80.3991 C   0  0  0  0  0  0  0  0  0  0  0  0
   -3.1677   60.5123   79.3756 C   0  0  0  0  0  0  0  0  0  0  0  0
    3.8411   68.6087   83.7494 O   0  0  0  0  0  0  0  0  0  0  0  0
    4.7130   67.7009   84.4497 C   0  0  0  0  0  0  0  0  0  0  0  0
    6.1526   67.8896   83.9696 C   0  0  0  0  0  0  0  0  0  0  0  0
    4.5943   68.0335   85.9488 C   0  0  0  0  0  0  0  0  0  0  0  0
    5.6435   67.4770   86.7392 O   0  0  0  0  0  0  0  0  0  0  0  0
    5.3950   66.1351   87.1368 C   0  0  0  0  0  0  0  0  0  0  0  0
 18 19  1  0  0  0
 19  7  1  0  0  0
  7  8  2  0  0  0
  8  9  1  0  0  0
  9 10  2  0  0  0
 10  1  1  0  0  0
  1  2  1  0  0  0
  2  3  2  0  0  0
  3 24  1  0  0  0
 24 25  2  0  0  0
 24 26  2  0  0  0
 24 27  1  0  0  0
 27 28  1  0  0  0
 28 29  1  0  0  0
 29 30  1  0  0  0
 30 33  1  0  0  0
 33 34  1  0  0  0
 30 31  1  0  0  0
 31 32  1  0  0  0
  3  4  1  0  0  0
  4  5  2  0  0  0
  5  6  1  0  0  0
  6 35  1  0  0  0
 35 36  1  0  0  0
 36 37  1  0  0  0
 36 38  1  0  0  0
 38 39  1  0  0  0
 39 40  1  0  0  0
 10 11  1  0  0  0
 11 12  1  0  0  0
 12 13  2  0  0  0
 12 14  1  0  0  0
 14 15  2  0  0  0
 15 16  1  0  0  0
 16 20  1  0  0  0
 20 21  1  0  0  0
 21 22  1  0  0  0
 22 23  1  0  0  0
 16  7  1  0  0  0
 14  8  1  0  0  0
  6  1  2  0  0  0
 32 27  1  0  0  0
 11 17  1  0  0  0
M  END
> <minimizedAffinity>
-1.61286

$$$$



 40 43  0  0  0  0  0  0  0  0999 V2000
    2.0667   73.1127   81.3509 C   0  0  0  0  0  0  0  0  0  0  0  0
    2.3417   71.7509   81.1620 C   0  0  0  0  0  0  0  0  0  0  0  0
    1.3062   70.8230   81.2247 C   0  0  0  0  0  0  0  0  0  0  0  0
    0.0147   71.2775   81.3960 C   0  0  0  0  0  0  0  0  0  0  0  0
   -0.2894   72.5879   81.5587 N   0  0  0  0  0  0  0  0  0  0  0  0
    0.7325   73.4795   81.5447 C   0  0  0  0  0  0  0  0  0  0  0  0
    4.8448   76.6432   83.2695 C   0  0  0  0  0  0  0  0  0  0  0  0
    4.4573   75.6949   82.3594 C   0  0  0  0  0  0  0  0  0  0  0  0
    3.3596   74.8377   82.4262 N   0  0  0  0  0  0  0  0  0  0  0  0
    3.2257   74.0559   81.3905 C   0  0  0  0  0  0  0  0  0  0  0  0
    4.0954   74.0409   80.3067 N   0  0  0  0  0  0  0  0  0  0  0  0
    5.2008   74.8593   80.1637 C   0  0  0  0  0  0  0  0  0  0  0  0
    5.9179   74.8073   79.1689 O   0  0  0  0  0  0  0  0  0  0  0  0
    5.3637   75.7406   81.2980 C   0  0  0  0  0  0  0  0  0  0  0  0
    6.3095   76.6659   81.5043 N   0  0  0  0  0  0  0  0  0  0  0  0
    5.9760   77.2009   82.7091 N   0  0  0  0  0  0  0  0  0  0  0  0
    3.9240   73.4305   79.5185 H   0  0  0  0  0  0  0  0  0  0  0  0
    3.2334   78.1721   84.4080 C   0  0  0  0  0  0  0  0  0  0  0  0
    4.2355   77.0376   84.5708 C   0  0  0  0  0  0  0  0  0  0  0  0
    6.8510   78.2268   83.2575 C   0  0  0  0  0  0  0  0  0  0  0  0
    8.2781   78.1075   82.7321 C   0  0  0  0  0  0  0  0  0  0  0  0
    9.2481   78.4634   83.7236 O   0  0  0  0  0  0  0  0  0  0  0  0
    8.6873   78.6279   85.0199 C   0  0  0  0  0  0  0  0  0  0  0  0
    1.6115   69.0958   81.0417 S   0  0  0  0  0  0  0  0  0  0  0  0
    2.8683   68.9601   80.3386 O   0  0  0  0  0  0  0  0  0  0  0  0
    0.3955   68.5034   80.5270 O   0  0  0  0  0  0  0  0  0  0  0  0
    1.8215   68.5542   82.6264 N   0  0  0  0  0  0  0  0  0  0  0  0
    1.8519   67.0845   82.8637 C   0  0  0  0  0  0  0  0  0  0  0  0
    2.3032   66.7554   84.2988 C   0  0  0  0  0  0  0  0  0  0  0  0
    3.6392   67.2774   84.6580 N   0  0  0  0  0  0  0  0  0  0  0  0
    3.9348   68.5431   83.9496 C   0  0  0  0  0  0  0  0  0  0  0  0
    2.6838   69.3466   83.5460 C   0  0  0  0  0  0  0  0  0  0  0  0
    4.7251   66.3089   84.4476 C   0  0  0  0  0  0  0  0  0  0  0  0
    5.2680   65.7388   85.7536 C   0  0  0  0  0  0  0  0  0  0  0  0
    0.4338   74.8150   81.7268 O   0  0  0  0  0  0  0  0  0  0  0  0
   -0.6132   75.3497   80.8946 C   0  0  0  0  0  0  0  0  0  0  0  0
   -1.1014   76.6815   81.4662 C   0  0  0  0  0  0  0  0  0  0  0  0
   -0.0105   75.5513   79.4916 C   0  0  0  0  0  0  0  0  0  0  0  0
   -0.9120   75.2282   78.4341 O   0  0  0  0  0  0  0  0  0  0  0  0
   -1.4573   76.3734   77.7923 C   0  0  0  0  0  0  0  0  0  0  0  0
 18 19  1  0  0  0
 19  7  1  0  0  0
  7  8  2  0  0  0
  8  9  1  0  0  0
  9 10  2  0  0  0
 10  1  1  0  0  0
  1  2  1  0  0  0
  2  3  2  0  0  0
  3 24  1  0  0  0
 24 25  2  0  0  0
 24 26  2  0  0  0
 24 27  1  0  0  0
 27 28  1  0  0  0
 28 29  1  0  0  0
 29 30  1  0  0  0
 30 33  1  0  0  0
 33 34  1  0  0  0
 30 31  1  0  0  0
 31 32  1  0  0  0
  3  4  1  0  0  0
  4  5  2  0  0  0
  5  6  1  0  0  0
  6 35  1  0  0  0
 35 36  1  0  0  0
 36 37  1  0  0  0
 36 38  1  0  0  0
 38 39  1  0  0  0
 39 40  1  0  0  0
 10 11  1  0  0  0
 11 12  1  0  0  0
 12 13  2  0  0  0
 12 14  1  0  0  0
 14 15  2  0  0  0
 15 16  1  0  0  0
 16 20  1  0  0  0
 20 21  1  0  0  0
 21 22  1  0  0  0
 22 23  1  0  0  0
 16  7  1  0  0  0
 14  8  1  0  0  0
  6  1  2  0  0  0
 32 27  1  0  0  0
 11 17  1  0  0  0
M  END
> <minimizedAffinity>
-1.60528

$$$$



 40 43  0  0  0  0  0  0  0  0999 V2000
    0.1185   65.5541   80.7748 C   0  0  0  0  0  0  0  0  0  0  0  0
   -0.0882   64.9869   79.5094 C   0  0  0  0  0  0  0  0  0  0  0  0
   -0.2816   63.6136   79.3923 C   0  0  0  0  0  0  0  0  0  0  0  0
   -0.3423   62.8498   80.5399 C   0  0  0  0  0  0  0  0  0  0  0  0
   -0.1699   63.3684   81.7797 N   0  0  0  0  0  0  0  0  0  0  0  0
    0.0666   64.7002   81.8796 C   0  0  0  0  0  0  0  0  0  0  0  0
    2.6856   69.4748   82.1537 C   0  0  0  0  0  0  0  0  0  0  0  0
    1.6921   68.7736   81.5220 C   0  0  0  0  0  0  0  0  0  0  0  0
    1.4926   67.3937   81.5036 N   0  0  0  0  0  0  0  0  0  0  0  0
    0.4372   67.0132   80.8378 C   0  0  0  0  0  0  0  0  0  0  0  0
   -0.4236   67.8815   80.1772 N   0  0  0  0  0  0  0  0  0  0  0  0
   -0.2974   69.2582   80.1512 C   0  0  0  0  0  0  0  0  0  0  0  0
   -1.1065   69.9694   79.5629 O   0  0  0  0  0  0  0  0  0  0  0  0
    0.8627   69.7028   80.8905 C   0  0  0  0  0  0  0  0  0  0  0  0
    1.2955   70.9548   81.0864 N   0  0  0  0  0  0  0  0  0  0  0  0
    2.4055   70.7927   81.8550 N   0  0  0  0  0  0  0  0  0  0  0  0
   -1.2427   67.5289   79.6998 H   0  0  0  0  0  0  0  0  0  0  0  0
    3.3664   68.5304   84.3616 C   0  0  0  0  0  0  0  0  0  0  0  0
    3.8246   68.9963   82.9865 C   0  0  0  0  0  0  0  0  0  0  0  0
    3.1577   71.9860   82.2142 C   0  0  0  0  0  0  0  0  0  0  0  0
    2.4827   73.2622   81.7219 C   0  0  0  0  0  0  0  0  0  0  0  0
    2.9836   74.4271   82.3873 O   0  0  0  0  0  0  0  0  0  0  0  0
    1.9782   75.3992   82.6444 C   0  0  0  0  0  0  0  0  0  0  0  0
   -0.4968   62.8496   77.8175 S   0  0  0  0  0  0  0  0  0  0  0  0
    0.7100   62.1012   77.5416 O   0  0  0  0  0  0  0  0  0  0  0  0
   -0.9683   63.8745   76.9109 O   0  0  0  0  0  0  0  0  0  0  0  0
   -1.7597   61.7586   78.0686 N   0  0  0  0  0  0  0  0  0  0  0  0
   -1.4188   60.4006   78.5755 C   0  0  0  0  0  0  0  0  0  0  0  0
   -2.6806   59.6227   78.9931 C   0  0  0  0  0  0  0  0  0  0  0  0
   -3.4911   60.2820   80.0394 N   0  0  0  0  0  0  0  0  0  0  0  0
   -3.4011   61.7566   79.9456 C   0  0  0  0  0  0  0  0  0  0  0  0
   -3.0748   62.2797   78.5338 C   0  0  0  0  0  0  0  0  0  0  0  0
   -3.1669   59.8364   81.4024 C   0  0  0  0  0  0  0  0  0  0  0  0
   -2.9107   60.9976   82.3571 C   0  0  0  0  0  0  0  0  0  0  0  0
    0.2605   65.2345   83.1377 O   0  0  0  0  0  0  0  0  0  0  0  0
    0.9307   64.3868   84.0901 C   0  0  0  0  0  0  0  0  0  0  0  0
    1.9692   65.1979   84.8661 C   0  0  0  0  0  0  0  0  0  0  0  0
   -0.1505   63.8405   85.0413 C   0  0  0  0  0  0  0  0  0  0  0  0
    0.2572   63.8113   86.4081 O   0  0  0  0  0  0  0  0  0  0  0  0
   -0.6947   63.1939   87.2643 C   0  0  0  0  0  0  0  0  0  0  0  0
 18 19  1  0  0  0
 19  7  1  0  0  0
  7  8  2  0  0  0
  8  9  1  0  0  0
  9 10  2  0  0  0
 10  1  1  0  0  0
  1  2  1  0  0  0
  2  3  2  0  0  0
  3 24  1  0  0  0
 24 25  2  0  0  0
 24 26  2  0  0  0
 24 27  1  0  0  0
 27 28  1  0  0  0
 28 29  1  0  0  0
 29 30  1  0  0  0
 30 33  1  0  0  0
 33 34  1  0  0  0
 30 31  1  0  0  0
 31 32  1  0  0  0
  3  4  1  0  0  0
  4  5  2  0  0  0
  5  6  1  0  0  0
  6 35  1  0  0  0
 35 36  1  0  0  0
 36 37  1  0  0  0
 36 38  1  0  0  0
 38 39  1  0  0  0
 39 40  1  0  0  0
 10 11  1  0  0  0
 11 12  1  0  0  0
 12 13  2  0  0  0
 12 14  1  0  0  0
 14 15  2  0  0  0
 15 16  1  0  0  0
 16 20  1  0  0  0
 20 21  1  0  0  0
 21 22  1  0  0  0
 22 23  1  0  0  0
 16  7  1  0  0  0
 14  8  1  0  0  0
  6  1  2  0  0  0
 32 27  1  0  0  0
 11 17  1  0  0  0
M  END
> <minimizedAffinity>
-1.59559

$$$$
