


 45 48  0  0  0  0  0  0  0  0999 V2000
    0.4258   72.2347   81.1437 C   0  0  0  0  0  0  0  0  0  0  0  0
   -0.5064   71.1964   80.9953 C   0  0  0  0  0  0  0  0  0  0  0  0
   -0.0973   69.8589   80.9774 C   0  0  0  0  0  0  0  0  0  0  0  0
    1.2555   69.5508   81.0913 C   0  0  0  0  0  0  0  0  0  0  0  0
    2.2023   70.5689   81.1923 C   0  0  0  0  0  0  0  0  0  0  0  0
    1.7980   71.9141   81.2465 C   0  0  0  0  0  0  0  0  0  0  0  0
    2.8892   72.9243   81.4631 C   0  0  0  0  0  0  0  0  0  0  0  0
    3.8386   73.0311   80.5759 N   0  0  0  0  0  0  0  0  0  0  0  0
    4.8067   73.9882   80.8759 C   0  0  0  0  0  0  0  0  0  0  0  0
    5.9253   74.3136   80.0894 C   0  0  0  0  0  0  0  0  0  0  0  0
    6.6152   75.3158   80.7847 C   0  0  0  0  0  0  0  0  0  0  0  0
    5.9136   75.5507   81.9687 N   0  0  0  0  0  0  0  0  0  0  0  0
    4.7930   74.7528   82.0049 C   0  0  0  0  0  0  0  0  0  0  0  0
    3.7474   74.6395   82.9729 C   0  0  0  0  0  0  0  0  0  0  0  0
    3.6468   75.2796   84.0141 O   0  0  0  0  0  0  0  0  0  0  0  0
    2.8168   73.6935   82.6127 N   0  0  0  0  0  0  0  0  0  0  0  0
    2.0684   73.5383   83.2749 H   0  0  0  0  0  0  0  0  0  0  0  0
    7.8285   75.9717   80.3398 C   0  0  0  0  0  0  0  0  0  0  0  0
    7.8373   77.1649   79.8365 N   0  0  0  0  0  0  0  0  0  0  0  0
    9.1516   77.5124   79.4976 O   0  0  0  0  0  0  0  0  0  0  0  0
    9.0422   78.4052   79.1198 H   0  0  0  0  0  0  0  0  0  0  0  0
    6.2996   76.4592   83.0399 C   0  0  0  0  0  0  0  0  0  0  0  0
    5.7648   77.8649   82.8298 C   0  0  0  0  0  0  0  0  0  0  0  0
    6.2646   73.6956   78.7673 C   0  0  0  0  0  0  0  0  0  0  0  0
    5.8604   74.5883   77.5927 C   0  0  0  0  0  0  0  0  0  0  0  0
    6.7957   74.4082   76.4074 C   0  0  0  0  0  0  0  0  0  0  0  0
    1.7892   67.8567   81.0606 S   0  0  0  0  0  0  0  0  0  0  0  0
    2.5192   67.5862   82.2808 O   0  0  0  0  0  0  0  0  0  0  0  0
    2.3908   67.6142   79.7664 O   0  0  0  0  0  0  0  0  0  0  0  0
    0.3159   66.9931   81.1287 N   0  0  0  0  0  0  0  0  0  0  0  0
    0.3318   65.7692   82.0000 C   0  0  0  0  0  0  0  0  0  0  0  0
   -0.7177   64.7291   81.5649 C   0  0  0  0  0  0  0  0  0  0  0  0
   -0.5680   64.2427   80.1772 N   0  0  0  0  0  0  0  0  0  0  0  0
    0.0325   65.2865   79.3114 C   0  0  0  0  0  0  0  0  0  0  0  0
   -0.2788   66.7200   79.7758 C   0  0  0  0  0  0  0  0  0  0  0  0
    0.2027   62.9892   80.0682 C   0  0  0  0  0  0  0  0  0  0  0  0
   -0.6537   61.7612   79.7146 C   0  0  0  0  0  0  0  0  0  0  0  0
   -1.6985   62.1675   78.8328 O   0  0  0  0  0  0  0  0  0  0  0  0
   -2.1230   61.1253   77.9796 N   0  0  0  0  0  0  0  0  0  0  0  0
   -1.8811   61.3482   76.7950 O   0  0  0  0  0  0  0  0  0  0  0  0
   -2.6561   60.1462   78.5053 O   0  0  0  0  0  0  0  0  0  0  0  0
    0.0879   73.5618   81.1877 O   0  0  0  0  0  0  0  0  0  0  0  0
   -0.7860   74.1136   80.2001 C   0  0  0  0  0  0  0  0  0  0  0  0
    0.1432   76.3790   79.5500 C   0  0  0  0  0  0  0  0  0  0  0  0
   -0.9131   75.6286   80.3497 C   0  0  0  0  0  0  0  0  0  0  0  0
 44 45  1  0  0  0
 45 43  1  0  0  0
 43 42  1  0  0  0
 42  1  1  0  0  0
  1  2  1  0  0  0
  2  3  2  0  0  0
  3  4  1  0  0  0
  4 27  1  0  0  0
 27 28  2  0  0  0
 27 29  2  0  0  0
 27 30  1  0  0  0
 30 31  1  0  0  0
 31 32  1  0  0  0
 32 33  1  0  0  0
 33 36  1  0  0  0
 36 37  1  0  0  0
 37 38  1  0  0  0
 38 39  1  0  0  0
 39 40  2  0  0  0
 39 41  1  0  0  0
 33 34  1  0  0  0
 34 35  1  0  0  0
  4  5  2  0  0  0
  5  6  1  0  0  0
  6  7  1  0  0  0
  7  8  2  0  0  0
  8  9  1  0  0  0
  9 10  1  0  0  0
 10 24  1  0  0  0
 24 25  1  0  0  0
 25 26  1  0  0  0
 10 11  2  0  0  0
 11 18  1  0  0  0
 18 19  2  0  0  0
 19 20  1  0  0  0
 11 12  1  0  0  0
 12 22  1  0  0  0
 22 23  1  0  0  0
 12 13  1  0  0  0
 13 14  1  0  0  0
 14 15  2  0  0  0
 14 16  1  0  0  0
  6  1  2  0  0  0
 16  7  1  0  0  0
 35 30  1  0  0  0
 13  9  2  0  0  0
 20 21  1  0  0  0
 16 17  1  0  0  0
M  CHG 1  39   1
M  CHG 1  41  -1
M  END
> <minimizedAffinity>
-1.91021

$$$$



 45 48  0  0  0  0  0  0  0  0999 V2000
    0.4904   72.1787   81.2653 C   0  0  0  0  0  0  0  0  0  0  0  0
   -0.4645   71.1506   81.2535 C   0  0  0  0  0  0  0  0  0  0  0  0
   -0.0754   69.8070   81.2367 C   0  0  0  0  0  0  0  0  0  0  0  0
    1.2780   69.4821   81.2141 C   0  0  0  0  0  0  0  0  0  0  0  0
    2.2421   70.4883   81.1779 C   0  0  0  0  0  0  0  0  0  0  0  0
    1.8618   71.8406   81.2300 C   0  0  0  0  0  0  0  0  0  0  0  0
    2.9819   72.8405   81.2933 C   0  0  0  0  0  0  0  0  0  0  0  0
    2.9453   73.7759   82.2008 N   0  0  0  0  0  0  0  0  0  0  0  0
    4.0244   74.6578   82.1673 C   0  0  0  0  0  0  0  0  0  0  0  0
    4.2379   75.7430   83.0349 C   0  0  0  0  0  0  0  0  0  0  0  0
    5.4347   76.3444   82.6231 C   0  0  0  0  0  0  0  0  0  0  0  0
    5.8952   75.6267   81.5177 N   0  0  0  0  0  0  0  0  0  0  0  0
    5.0401   74.5795   81.2610 C   0  0  0  0  0  0  0  0  0  0  0  0
    5.0823   73.5489   80.2713 C   0  0  0  0  0  0  0  0  0  0  0  0
    5.9489   73.3946   79.4175 O   0  0  0  0  0  0  0  0  0  0  0  0
    4.0022   72.7033   80.3667 N   0  0  0  0  0  0  0  0  0  0  0  0
    3.9532   71.9720   79.6699 H   0  0  0  0  0  0  0  0  0  0  0  0
    6.0597   77.4957   83.2431 C   0  0  0  0  0  0  0  0  0  0  0  0
    7.0834   77.3997   84.0304 N   0  0  0  0  0  0  0  0  0  0  0  0
    7.4465   78.6787   84.4721 O   0  0  0  0  0  0  0  0  0  0  0  0
    8.2021   78.4914   85.0601 H   0  0  0  0  0  0  0  0  0  0  0  0
    7.0690   75.9339   80.7117 C   0  0  0  0  0  0  0  0  0  0  0  0
    6.7554   76.8807   79.5666 C   0  0  0  0  0  0  0  0  0  0  0  0
    3.3432   76.1328   84.1718 C   0  0  0  0  0  0  0  0  0  0  0  0
    2.3292   77.2040   83.7667 C   0  0  0  0  0  0  0  0  0  0  0  0
    1.8651   78.0150   84.9662 C   0  0  0  0  0  0  0  0  0  0  0  0
    1.7854   67.7799   81.1831 S   0  0  0  0  0  0  0  0  0  0  0  0
    2.4732   67.4863   82.4222 O   0  0  0  0  0  0  0  0  0  0  0  0
    2.4224   67.5398   79.9055 O   0  0  0  0  0  0  0  0  0  0  0  0
    0.2971   66.9398   81.1978 N   0  0  0  0  0  0  0  0  0  0  0  0
    0.2833   65.6778   82.0130 C   0  0  0  0  0  0  0  0  0  0  0  0
   -0.7790   64.6766   81.5211 C   0  0  0  0  0  0  0  0  0  0  0  0
   -0.6230   64.2507   80.1144 N   0  0  0  0  0  0  0  0  0  0  0  0
    0.0039   65.3220   79.3025 C   0  0  0  0  0  0  0  0  0  0  0  0
   -0.2880   66.7382   79.8283 C   0  0  0  0  0  0  0  0  0  0  0  0
    0.1275   62.9903   79.9562 C   0  0  0  0  0  0  0  0  0  0  0  0
   -0.3016   62.1599   78.7345 C   0  0  0  0  0  0  0  0  0  0  0  0
   -1.0315   61.0207   79.1860 O   0  0  0  0  0  0  0  0  0  0  0  0
   -2.2643   60.8664   78.5145 N   0  0  0  0  0  0  0  0  0  0  0  0
   -3.2273   60.8564   79.2788 O   0  0  0  0  0  0  0  0  0  0  0  0
   -2.2312   60.7747   77.2858 O   0  0  0  0  0  0  0  0  0  0  0  0
    0.1749   73.5116   81.3007 O   0  0  0  0  0  0  0  0  0  0  0  0
   -0.7154   74.0650   80.3288 C   0  0  0  0  0  0  0  0  0  0  0  0
   -1.4836   76.2102   79.2216 C   0  0  0  0  0  0  0  0  0  0  0  0
   -0.7375   75.5910   80.3957 C   0  0  0  0  0  0  0  0  0  0  0  0
 44 45  1  0  0  0
 45 43  1  0  0  0
 43 42  1  0  0  0
 42  1  1  0  0  0
  1  2  1  0  0  0
  2  3  2  0  0  0
  3  4  1  0  0  0
  4 27  1  0  0  0
 27 28  2  0  0  0
 27 29  2  0  0  0
 27 30  1  0  0  0
 30 31  1  0  0  0
 31 32  1  0  0  0
 32 33  1  0  0  0
 33 36  1  0  0  0
 36 37  1  0  0  0
 37 38  1  0  0  0
 38 39  1  0  0  0
 39 40  2  0  0  0
 39 41  1  0  0  0
 33 34  1  0  0  0
 34 35  1  0  0  0
  4  5  2  0  0  0
  5  6  1  0  0  0
  6  7  1  0  0  0
  7  8  2  0  0  0
  8  9  1  0  0  0
  9 10  1  0  0  0
 10 24  1  0  0  0
 24 25  1  0  0  0
 25 26  1  0  0  0
 10 11  2  0  0  0
 11 18  1  0  0  0
 18 19  2  0  0  0
 19 20  1  0  0  0
 11 12  1  0  0  0
 12 22  1  0  0  0
 22 23  1  0  0  0
 12 13  1  0  0  0
 13 14  1  0  0  0
 14 15  2  0  0  0
 14 16  1  0  0  0
  6  1  2  0  0  0
 16  7  1  0  0  0
 35 30  1  0  0  0
 13  9  2  0  0  0
 20 21  1  0  0  0
 16 17  1  0  0  0
M  CHG 1  39   1
M  CHG 1  41  -1
M  END
> <minimizedAffinity>
-1.87640

$$$$



 45 48  0  0  0  0  0  0  0  0999 V2000
    1.4955   65.6294   83.6710 C   0  0  0  0  0  0  0  0  0  0  0  0
    2.2631   66.7248   84.0950 C   0  0  0  0  0  0  0  0  0  0  0  0
    2.4190   67.8524   83.2820 C   0  0  0  0  0  0  0  0  0  0  0  0
    1.8190   67.8844   82.0263 C   0  0  0  0  0  0  0  0  0  0  0  0
    1.0914   66.7878   81.5667 C   0  0  0  0  0  0  0  0  0  0  0  0
    0.8999   65.6648   82.3902 C   0  0  0  0  0  0  0  0  0  0  0  0
    0.0119   64.5847   81.8397 C   0  0  0  0  0  0  0  0  0  0  0  0
    0.1204   64.2550   80.5830 N   0  0  0  0  0  0  0  0  0  0  0  0
   -0.7551   63.2519   80.1697 C   0  0  0  0  0  0  0  0  0  0  0  0
   -0.8399   62.7030   78.8784 C   0  0  0  0  0  0  0  0  0  0  0  0
   -1.8570   61.7404   78.9277 C   0  0  0  0  0  0  0  0  0  0  0  0
   -2.3670   61.7489   80.2274 N   0  0  0  0  0  0  0  0  0  0  0  0
   -1.6693   62.6583   80.9889 C   0  0  0  0  0  0  0  0  0  0  0  0
   -1.7819   63.0161   82.3682 C   0  0  0  0  0  0  0  0  0  0  0  0
   -2.5679   62.5420   83.1814 O   0  0  0  0  0  0  0  0  0  0  0  0
   -0.8827   63.9958   82.7179 N   0  0  0  0  0  0  0  0  0  0  0  0
   -0.9357   64.3205   83.6741 H   0  0  0  0  0  0  0  0  0  0  0  0
   -2.2838   60.9037   77.8241 C   0  0  0  0  0  0  0  0  0  0  0  0
   -1.7018   59.7863   77.5243 N   0  0  0  0  0  0  0  0  0  0  0  0
   -2.3364   59.2205   76.4107 O   0  0  0  0  0  0  0  0  0  0  0  0
   -1.8176   58.4075   76.2638 H   0  0  0  0  0  0  0  0  0  0  0  0
   -3.4884   60.9632   80.7242 C   0  0  0  0  0  0  0  0  0  0  0  0
   -3.0524   59.6245   81.2934 C   0  0  0  0  0  0  0  0  0  0  0  0
    0.0192   63.0908   77.7137 C   0  0  0  0  0  0  0  0  0  0  0  0
   -0.4168   64.4187   77.0922 C   0  0  0  0  0  0  0  0  0  0  0  0
   -1.7715   64.2984   76.4123 C   0  0  0  0  0  0  0  0  0  0  0  0
    2.0169   69.3064   80.9801 S   0  0  0  0  0  0  0  0  0  0  0  0
    1.2949   69.0704   79.7482 O   0  0  0  0  0  0  0  0  0  0  0  0
    3.4254   69.6404   80.9629 O   0  0  0  0  0  0  0  0  0  0  0  0
    1.1941   70.5306   81.8437 N   0  0  0  0  0  0  0  0  0  0  0  0
   -0.0380   71.0684   81.1729 C   0  0  0  0  0  0  0  0  0  0  0  0
   -0.3659   72.5056   81.6197 C   0  0  0  0  0  0  0  0  0  0  0  0
    0.7028   73.4930   81.3599 N   0  0  0  0  0  0  0  0  0  0  0  0
    2.0395   72.8519   81.4056 C   0  0  0  0  0  0  0  0  0  0  0  0
    2.0987   71.6261   82.3336 C   0  0  0  0  0  0  0  0  0  0  0  0
    0.5362   74.2269   80.0908 C   0  0  0  0  0  0  0  0  0  0  0  0
   -0.8828   74.7799   79.8737 C   0  0  0  0  0  0  0  0  0  0  0  0
   -1.0772   75.0134   78.4801 O   0  0  0  0  0  0  0  0  0  0  0  0
   -2.4430   75.0865   78.1286 N   0  0  0  0  0  0  0  0  0  0  0  0
   -3.0871   74.1097   78.5061 O   0  0  0  0  0  0  0  0  0  0  0  0
   -2.8165   76.0895   77.5172 O   0  0  0  0  0  0  0  0  0  0  0  0
    1.2891   64.5052   84.4266 O   0  0  0  0  0  0  0  0  0  0  0  0
    0.8838   64.6224   85.7924 C   0  0  0  0  0  0  0  0  0  0  0  0
    0.0293   63.1917   87.7006 C   0  0  0  0  0  0  0  0  0  0  0  0
   -0.0310   63.4705   86.2049 C   0  0  0  0  0  0  0  0  0  0  0  0
 44 45  1  0  0  0
 45 43  1  0  0  0
 43 42  1  0  0  0
 42  1  1  0  0  0
  1  2  1  0  0  0
  2  3  2  0  0  0
  3  4  1  0  0  0
  4 27  1  0  0  0
 27 28  2  0  0  0
 27 29  2  0  0  0
 27 30  1  0  0  0
 30 31  1  0  0  0
 31 32  1  0  0  0
 32 33  1  0  0  0
 33 36  1  0  0  0
 36 37  1  0  0  0
 37 38  1  0  0  0
 38 39  1  0  0  0
 39 40  2  0  0  0
 39 41  1  0  0  0
 33 34  1  0  0  0
 34 35  1  0  0  0
  4  5  2  0  0  0
  5  6  1  0  0  0
  6  7  1  0  0  0
  7  8  2  0  0  0
  8  9  1  0  0  0
  9 10  1  0  0  0
 10 24  1  0  0  0
 24 25  1  0  0  0
 25 26  1  0  0  0
 10 11  2  0  0  0
 11 18  1  0  0  0
 18 19  2  0  0  0
 19 20  1  0  0  0
 11 12  1  0  0  0
 12 22  1  0  0  0
 22 23  1  0  0  0
 12 13  1  0  0  0
 13 14  1  0  0  0
 14 15  2  0  0  0
 14 16  1  0  0  0
  6  1  2  0  0  0
 16  7  1  0  0  0
 35 30  1  0  0  0
 13  9  2  0  0  0
 20 21  1  0  0  0
 16 17  1  0  0  0
M  CHG 1  39   1
M  CHG 1  41  -1
M  END
> <minimizedAffinity>
-1.86173

$$$$



 45 48  0  0  0  0  0  0  0  0999 V2000
    1.5378   65.6032   83.6652 C   0  0  0  0  0  0  0  0  0  0  0  0
    2.3118   66.6979   84.0795 C   0  0  0  0  0  0  0  0  0  0  0  0
    2.4560   67.8265   83.2658 C   0  0  0  0  0  0  0  0  0  0  0  0
    1.8378   67.8602   82.0189 C   0  0  0  0  0  0  0  0  0  0  0  0
    1.1034   66.7644   81.5685 C   0  0  0  0  0  0  0  0  0  0  0  0
    0.9237   65.6403   82.3933 C   0  0  0  0  0  0  0  0  0  0  0  0
    0.0276   64.5611   81.8543 C   0  0  0  0  0  0  0  0  0  0  0  0
    0.1505   64.1998   80.6077 N   0  0  0  0  0  0  0  0  0  0  0  0
   -0.7340   63.2006   80.2043 C   0  0  0  0  0  0  0  0  0  0  0  0
   -0.8071   62.6224   78.9252 C   0  0  0  0  0  0  0  0  0  0  0  0
   -1.8399   61.6769   78.9810 C   0  0  0  0  0  0  0  0  0  0  0  0
   -2.3699   61.7243   80.2717 N   0  0  0  0  0  0  0  0  0  0  0  0
   -1.6701   62.6409   81.0226 C   0  0  0  0  0  0  0  0  0  0  0  0
   -1.7987   63.0332   82.3911 C   0  0  0  0  0  0  0  0  0  0  0  0
   -2.6046   62.5908   83.2026 O   0  0  0  0  0  0  0  0  0  0  0  0
   -0.8897   64.0071   82.7318 N   0  0  0  0  0  0  0  0  0  0  0  0
   -0.9526   64.3554   83.6791 H   0  0  0  0  0  0  0  0  0  0  0  0
   -2.2624   60.8207   77.8907 C   0  0  0  0  0  0  0  0  0  0  0  0
   -1.5565   59.8198   77.4701 N   0  0  0  0  0  0  0  0  0  0  0  0
   -2.2255   59.1984   76.4074 O   0  0  0  0  0  0  0  0  0  0  0  0
   -1.6098   58.4828   76.1612 H   0  0  0  0  0  0  0  0  0  0  0  0
   -3.5112   60.9679   80.7690 C   0  0  0  0  0  0  0  0  0  0  0  0
   -3.1072   59.6285   81.3596 C   0  0  0  0  0  0  0  0  0  0  0  0
    0.0761   62.9689   77.7655 C   0  0  0  0  0  0  0  0  0  0  0  0
   -0.2861   64.3210   77.1485 C   0  0  0  0  0  0  0  0  0  0  0  0
   -1.6667   64.2919   76.5120 C   0  0  0  0  0  0  0  0  0  0  0  0
    2.0208   69.2836   80.9718 S   0  0  0  0  0  0  0  0  0  0  0  0
    1.3348   69.0233   79.7242 O   0  0  0  0  0  0  0  0  0  0  0  0
    3.4195   69.6565   80.9862 O   0  0  0  0  0  0  0  0  0  0  0  0
    1.1443   70.4873   81.8108 N   0  0  0  0  0  0  0  0  0  0  0  0
    0.0912   71.1914   81.0029 C   0  0  0  0  0  0  0  0  0  0  0  0
   -0.2107   72.6029   81.5408 C   0  0  0  0  0  0  0  0  0  0  0  0
    0.9529   73.5137   81.5747 N   0  0  0  0  0  0  0  0  0  0  0  0
    2.2125   72.7573   81.7768 C   0  0  0  0  0  0  0  0  0  0  0  0
    2.0209   71.4487   82.5630 C   0  0  0  0  0  0  0  0  0  0  0  0
    1.0656   74.3763   80.3829 C   0  0  0  0  0  0  0  0  0  0  0  0
    0.9580   75.8796   80.6907 C   0  0  0  0  0  0  0  0  0  0  0  0
    2.2426   76.3628   81.0787 O   0  0  0  0  0  0  0  0  0  0  0  0
    2.2501   76.8891   82.3892 N   0  0  0  0  0  0  0  0  0  0  0  0
    2.8504   76.1734   83.1887 O   0  0  0  0  0  0  0  0  0  0  0  0
    1.6845   77.9695   82.5677 O   0  0  0  0  0  0  0  0  0  0  0  0
    1.3422   64.4781   84.4223 O   0  0  0  0  0  0  0  0  0  0  0  0
    0.8872   64.5913   85.7727 C   0  0  0  0  0  0  0  0  0  0  0  0
   -0.0925   63.2618   87.6939 C   0  0  0  0  0  0  0  0  0  0  0  0
    0.0461   63.3836   86.1824 C   0  0  0  0  0  0  0  0  0  0  0  0
 44 45  1  0  0  0
 45 43  1  0  0  0
 43 42  1  0  0  0
 42  1  1  0  0  0
  1  2  1  0  0  0
  2  3  2  0  0  0
  3  4  1  0  0  0
  4 27  1  0  0  0
 27 28  2  0  0  0
 27 29  2  0  0  0
 27 30  1  0  0  0
 30 31  1  0  0  0
 31 32  1  0  0  0
 32 33  1  0  0  0
 33 36  1  0  0  0
 36 37  1  0  0  0
 37 38  1  0  0  0
 38 39  1  0  0  0
 39 40  2  0  0  0
 39 41  1  0  0  0
 33 34  1  0  0  0
 34 35  1  0  0  0
  4  5  2  0  0  0
  5  6  1  0  0  0
  6  7  1  0  0  0
  7  8  2  0  0  0
  8  9  1  0  0  0
  9 10  1  0  0  0
 10 24  1  0  0  0
 24 25  1  0  0  0
 25 26  1  0  0  0
 10 11  2  0  0  0
 11 18  1  0  0  0
 18 19  2  0  0  0
 19 20  1  0  0  0
 11 12  1  0  0  0
 12 22  1  0  0  0
 22 23  1  0  0  0
 12 13  1  0  0  0
 13 14  1  0  0  0
 14 15  2  0  0  0
 14 16  1  0  0  0
  6  1  2  0  0  0
 16  7  1  0  0  0
 35 30  1  0  0  0
 13  9  2  0  0  0
 20 21  1  0  0  0
 16 17  1  0  0  0
M  CHG 1  39   1
M  CHG 1  41  -1
M  END
> <minimizedAffinity>
-1.81774

$$$$



 45 48  0  0  0  0  0  0  0  0999 V2000
    3.5354   67.3721   83.9989 C   0  0  0  0  0  0  0  0  0  0  0  0
    4.2296   68.5690   83.7653 C   0  0  0  0  0  0  0  0  0  0  0  0
    3.7879   69.4807   82.8007 C   0  0  0  0  0  0  0  0  0  0  0  0
    2.6531   69.1916   82.0482 C   0  0  0  0  0  0  0  0  0  0  0  0
    1.9759   67.9870   82.2316 C   0  0  0  0  0  0  0  0  0  0  0  0
    2.3915   67.0806   83.2225 C   0  0  0  0  0  0  0  0  0  0  0  0
    1.5298   65.8637   83.4089 C   0  0  0  0  0  0  0  0  0  0  0  0
    0.9903   65.3033   82.3626 N   0  0  0  0  0  0  0  0  0  0  0  0
    0.2012   64.1893   82.6443 C   0  0  0  0  0  0  0  0  0  0  0  0
   -0.4821   63.3962   81.7062 C   0  0  0  0  0  0  0  0  0  0  0  0
   -1.1440   62.4031   82.4406 C   0  0  0  0  0  0  0  0  0  0  0  0
   -0.8624   62.6335   83.7885 N   0  0  0  0  0  0  0  0  0  0  0  0
   -0.0167   63.7130   83.9033 C   0  0  0  0  0  0  0  0  0  0  0  0
    0.5814   64.3243   85.0486 C   0  0  0  0  0  0  0  0  0  0  0  0
    0.4474   63.9715   86.2154 O   0  0  0  0  0  0  0  0  0  0  0  0
    1.3594   65.4046   84.7045 N   0  0  0  0  0  0  0  0  0  0  0  0
    1.7826   65.9050   85.4747 H   0  0  0  0  0  0  0  0  0  0  0  0
   -1.9628   61.3444   81.8847 C   0  0  0  0  0  0  0  0  0  0  0  0
   -3.0981   61.5671   81.3029 N   0  0  0  0  0  0  0  0  0  0  0  0
   -3.6477   60.3486   80.8832 O   0  0  0  0  0  0  0  0  0  0  0  0
   -4.4921   60.6262   80.4810 H   0  0  0  0  0  0  0  0  0  0  0  0
   -1.3958   61.8944   84.9247 C   0  0  0  0  0  0  0  0  0  0  0  0
   -2.6621   62.5205   85.4818 C   0  0  0  0  0  0  0  0  0  0  0  0
   -0.4646   63.6006   80.2220 C   0  0  0  0  0  0  0  0  0  0  0  0
    0.3232   62.5071   79.4984 C   0  0  0  0  0  0  0  0  0  0  0  0
   -0.5081   61.8485   78.4089 C   0  0  0  0  0  0  0  0  0  0  0  0
    2.0870   70.3366   80.8135 S   0  0  0  0  0  0  0  0  0  0  0  0
    0.9402   69.7581   80.1464 O   0  0  0  0  0  0  0  0  0  0  0  0
    3.2443   70.7694   80.0593 O   0  0  0  0  0  0  0  0  0  0  0  0
    1.5387   71.6599   81.7459 N   0  0  0  0  0  0  0  0  0  0  0  0
    0.1639   72.1588   81.4015 C   0  0  0  0  0  0  0  0  0  0  0  0
   -0.0298   73.6407   81.7744 C   0  0  0  0  0  0  0  0  0  0  0  0
    0.9159   74.5711   81.1225 N   0  0  0  0  0  0  0  0  0  0  0  0
    2.2131   73.9051   80.8517 C   0  0  0  0  0  0  0  0  0  0  0  0
    2.5402   72.7761   81.8445 C   0  0  0  0  0  0  0  0  0  0  0  0
    0.3909   75.1797   79.8851 C   0  0  0  0  0  0  0  0  0  0  0  0
   -1.1450   75.2418   79.8255 C   0  0  0  0  0  0  0  0  0  0  0  0
   -1.5651   74.9636   78.4912 O   0  0  0  0  0  0  0  0  0  0  0  0
   -2.9710   74.9278   78.3624 N   0  0  0  0  0  0  0  0  0  0  0  0
   -3.4416   73.8099   78.5639 O   0  0  0  0  0  0  0  0  0  0  0  0
   -3.5403   75.9851   78.0845 O   0  0  0  0  0  0  0  0  0  0  0  0
    3.9050   66.4480   84.9406 O   0  0  0  0  0  0  0  0  0  0  0  0
    4.9997   66.7169   85.8198 C   0  0  0  0  0  0  0  0  0  0  0  0
    7.4256   66.4706   85.1326 C   0  0  0  0  0  0  0  0  0  0  0  0
    6.1596   65.7523   85.5796 C   0  0  0  0  0  0  0  0  0  0  0  0
 44 45  1  0  0  0
 45 43  1  0  0  0
 43 42  1  0  0  0
 42  1  1  0  0  0
  1  2  1  0  0  0
  2  3  2  0  0  0
  3  4  1  0  0  0
  4 27  1  0  0  0
 27 28  2  0  0  0
 27 29  2  0  0  0
 27 30  1  0  0  0
 30 31  1  0  0  0
 31 32  1  0  0  0
 32 33  1  0  0  0
 33 36  1  0  0  0
 36 37  1  0  0  0
 37 38  1  0  0  0
 38 39  1  0  0  0
 39 40  2  0  0  0
 39 41  1  0  0  0
 33 34  1  0  0  0
 34 35  1  0  0  0
  4  5  2  0  0  0
  5  6  1  0  0  0
  6  7  1  0  0  0
  7  8  2  0  0  0
  8  9  1  0  0  0
  9 10  1  0  0  0
 10 24  1  0  0  0
 24 25  1  0  0  0
 25 26  1  0  0  0
 10 11  2  0  0  0
 11 18  1  0  0  0
 18 19  2  0  0  0
 19 20  1  0  0  0
 11 12  1  0  0  0
 12 22  1  0  0  0
 22 23  1  0  0  0
 12 13  1  0  0  0
 13 14  1  0  0  0
 14 15  2  0  0  0
 14 16  1  0  0  0
  6  1  2  0  0  0
 16  7  1  0  0  0
 35 30  1  0  0  0
 13  9  2  0  0  0
 20 21  1  0  0  0
 16 17  1  0  0  0
M  CHG 1  39   1
M  CHG 1  41  -1
M  END
> <minimizedAffinity>
-1.80478

$$$$



 45 48  0  0  0  0  0  0  0  0999 V2000
    2.7743   68.0335   83.1144 C   0  0  0  0  0  0  0  0  0  0  0  0
    2.5754   66.6574   83.3029 C   0  0  0  0  0  0  0  0  0  0  0  0
    1.7677   65.9206   82.4302 C   0  0  0  0  0  0  0  0  0  0  0  0
    1.1371   66.5624   81.3680 C   0  0  0  0  0  0  0  0  0  0  0  0
    1.2836   67.9372   81.1903 C   0  0  0  0  0  0  0  0  0  0  0  0
    2.1210   68.6796   82.0410 C   0  0  0  0  0  0  0  0  0  0  0  0
    2.2921   70.1325   81.6973 C   0  0  0  0  0  0  0  0  0  0  0  0
    3.4212   70.5328   81.1828 N   0  0  0  0  0  0  0  0  0  0  0  0
    3.4818   71.8987   80.9109 C   0  0  0  0  0  0  0  0  0  0  0  0
    4.5704   72.5863   80.3469 C   0  0  0  0  0  0  0  0  0  0  0  0
    4.1857   73.9314   80.2674 C   0  0  0  0  0  0  0  0  0  0  0  0
    2.8978   74.0217   80.7988 N   0  0  0  0  0  0  0  0  0  0  0  0
    2.4634   72.7688   81.1663 C   0  0  0  0  0  0  0  0  0  0  0  0
    1.2235   72.3269   81.7237 C   0  0  0  0  0  0  0  0  0  0  0  0
    0.2529   73.0283   81.9877 O   0  0  0  0  0  0  0  0  0  0  0  0
    1.2198   70.9710   81.9529 N   0  0  0  0  0  0  0  0  0  0  0  0
    0.3826   70.5998   82.3818 H   0  0  0  0  0  0  0  0  0  0  0  0
    4.9901   75.0107   79.7305 C   0  0  0  0  0  0  0  0  0  0  0  0
    5.5316   75.9206   80.4762 N   0  0  0  0  0  0  0  0  0  0  0  0
    6.2340   76.8224   79.6660 O   0  0  0  0  0  0  0  0  0  0  0  0
    6.5811   77.4622   80.3156 H   0  0  0  0  0  0  0  0  0  0  0  0
    2.1215   75.2395   80.9892 C   0  0  0  0  0  0  0  0  0  0  0  0
    2.4429   75.9336   82.3011 C   0  0  0  0  0  0  0  0  0  0  0  0
    5.8618   71.9603   79.9164 C   0  0  0  0  0  0  0  0  0  0  0  0
    5.9145   71.7274   78.4055 C   0  0  0  0  0  0  0  0  0  0  0  0
    6.9706   72.5981   77.7432 C   0  0  0  0  0  0  0  0  0  0  0  0
    0.1012   65.6401   80.2579 S   0  0  0  0  0  0  0  0  0  0  0  0
    0.7722   65.5473   78.9789 O   0  0  0  0  0  0  0  0  0  0  0  0
   -1.2359   66.1860   80.3569 O   0  0  0  0  0  0  0  0  0  0  0  0
    0.0885   64.0808   80.9577 N   0  0  0  0  0  0  0  0  0  0  0  0
    0.1924   62.9419   79.9833 C   0  0  0  0  0  0  0  0  0  0  0  0
   -0.4308   61.6448   80.5328 C   0  0  0  0  0  0  0  0  0  0  0  0
   -1.8620   61.7481   80.8869 N   0  0  0  0  0  0  0  0  0  0  0  0
   -2.2042   63.1263   81.3150 C   0  0  0  0  0  0  0  0  0  0  0  0
   -1.0229   63.8808   81.9493 C   0  0  0  0  0  0  0  0  0  0  0  0
   -2.7721   61.3113   79.8107 C   0  0  0  0  0  0  0  0  0  0  0  0
   -2.2664   60.0883   79.0265 C   0  0  0  0  0  0  0  0  0  0  0  0
   -2.8341   60.1140   77.7183 O   0  0  0  0  0  0  0  0  0  0  0  0
   -1.9587   60.6686   76.7588 N   0  0  0  0  0  0  0  0  0  0  0  0
   -2.2884   61.7999   76.4079 O   0  0  0  0  0  0  0  0  0  0  0  0
   -0.9966   59.9827   76.4080 O   0  0  0  0  0  0  0  0  0  0  0  0
    3.5671   68.8066   83.9213 O   0  0  0  0  0  0  0  0  0  0  0  0
    4.2229   68.2272   85.0516 C   0  0  0  0  0  0  0  0  0  0  0  0
    6.3723   67.1746   85.8826 C   0  0  0  0  0  0  0  0  0  0  0  0
    5.5751   67.6289   84.6674 C   0  0  0  0  0  0  0  0  0  0  0  0
 44 45  1  0  0  0
 45 43  1  0  0  0
 43 42  1  0  0  0
 42  1  1  0  0  0
  1  2  1  0  0  0
  2  3  2  0  0  0
  3  4  1  0  0  0
  4 27  1  0  0  0
 27 28  2  0  0  0
 27 29  2  0  0  0
 27 30  1  0  0  0
 30 31  1  0  0  0
 31 32  1  0  0  0
 32 33  1  0  0  0
 33 36  1  0  0  0
 36 37  1  0  0  0
 37 38  1  0  0  0
 38 39  1  0  0  0
 39 40  2  0  0  0
 39 41  1  0  0  0
 33 34  1  0  0  0
 34 35  1  0  0  0
  4  5  2  0  0  0
  5  6  1  0  0  0
  6  7  1  0  0  0
  7  8  2  0  0  0
  8  9  1  0  0  0
  9 10  1  0  0  0
 10 24  1  0  0  0
 24 25  1  0  0  0
 25 26  1  0  0  0
 10 11  2  0  0  0
 11 18  1  0  0  0
 18 19  2  0  0  0
 19 20  1  0  0  0
 11 12  1  0  0  0
 12 22  1  0  0  0
 22 23  1  0  0  0
 12 13  1  0  0  0
 13 14  1  0  0  0
 14 15  2  0  0  0
 14 16  1  0  0  0
  6  1  2  0  0  0
 16  7  1  0  0  0
 35 30  1  0  0  0
 13  9  2  0  0  0
 20 21  1  0  0  0
 16 17  1  0  0  0
M  CHG 1  39   1
M  CHG 1  41  -1
M  END
> <minimizedAffinity>
-1.79254

$$$$



 45 48  0  0  0  0  0  0  0  0999 V2000
    3.0225   68.0522   83.0077 C   0  0  0  0  0  0  0  0  0  0  0  0
    2.5225   66.7731   83.2954 C   0  0  0  0  0  0  0  0  0  0  0  0
    1.5101   66.2038   82.5158 C   0  0  0  0  0  0  0  0  0  0  0  0
    0.9771   66.9211   81.4484 C   0  0  0  0  0  0  0  0  0  0  0  0
    1.4266   68.2118   81.1744 C   0  0  0  0  0  0  0  0  0  0  0  0
    2.4677   68.7784   81.9302 C   0  0  0  0  0  0  0  0  0  0  0  0
    2.9483   70.1306   81.4843 C   0  0  0  0  0  0  0  0  0  0  0  0
    2.2686   71.1890   81.8268 N   0  0  0  0  0  0  0  0  0  0  0  0
    2.7917   72.3915   81.3540 C   0  0  0  0  0  0  0  0  0  0  0  0
    2.2661   73.6745   81.5852 C   0  0  0  0  0  0  0  0  0  0  0  0
    3.1098   74.5704   80.9150 C   0  0  0  0  0  0  0  0  0  0  0  0
    4.0987   73.8108   80.2872 N   0  0  0  0  0  0  0  0  0  0  0  0
    3.9126   72.4797   80.5825 C   0  0  0  0  0  0  0  0  0  0  0  0
    4.6607   71.3188   80.2139 C   0  0  0  0  0  0  0  0  0  0  0  0
    5.6766   71.2951   79.5274 O   0  0  0  0  0  0  0  0  0  0  0  0
    4.1051   70.1688   80.7234 N   0  0  0  0  0  0  0  0  0  0  0  0
    4.5672   69.3064   80.4679 H   0  0  0  0  0  0  0  0  0  0  0  0
    2.9644   76.0121   80.8910 C   0  0  0  0  0  0  0  0  0  0  0  0
    2.4104   76.6455   79.9066 N   0  0  0  0  0  0  0  0  0  0  0  0
    2.4284   78.0205   80.1750 O   0  0  0  0  0  0  0  0  0  0  0  0
    2.0101   78.3958   79.3775 H   0  0  0  0  0  0  0  0  0  0  0  0
    5.1527   74.3102   79.4146 C   0  0  0  0  0  0  0  0  0  0  0  0
    6.4001   74.7117   80.1820 C   0  0  0  0  0  0  0  0  0  0  0  0
    1.0499   73.9778   82.4061 C   0  0  0  0  0  0  0  0  0  0  0  0
   -0.1653   74.3066   81.5370 C   0  0  0  0  0  0  0  0  0  0  0  0
   -0.5934   75.7563   81.7020 C   0  0  0  0  0  0  0  0  0  0  0  0
   -0.3155   66.2135   80.4562 S   0  0  0  0  0  0  0  0  0  0  0  0
   -0.6913   67.1759   79.4427 O   0  0  0  0  0  0  0  0  0  0  0  0
   -1.3036   65.6620   81.3591 O   0  0  0  0  0  0  0  0  0  0  0  0
    0.4729   64.9125   79.6772 N   0  0  0  0  0  0  0  0  0  0  0  0
    0.2560   64.8299   78.1928 C   0  0  0  0  0  0  0  0  0  0  0  0
    0.4225   63.3952   77.6573 C   0  0  0  0  0  0  0  0  0  0  0  0
   -0.4913   62.4009   78.2582 N   0  0  0  0  0  0  0  0  0  0  0  0
   -0.8395   62.7743   79.6507 C   0  0  0  0  0  0  0  0  0  0  0  0
    0.2569   63.5901   80.3576 C   0  0  0  0  0  0  0  0  0  0  0  0
   -1.7194   62.1735   77.4725 C   0  0  0  0  0  0  0  0  0  0  0  0
   -2.1577   60.7000   77.4159 C   0  0  0  0  0  0  0  0  0  0  0  0
   -3.5257   60.6116   77.8097 O   0  0  0  0  0  0  0  0  0  0  0  0
   -3.6768   60.3860   79.1955 N   0  0  0  0  0  0  0  0  0  0  0  0
   -4.2108   61.3278   79.7782 O   0  0  0  0  0  0  0  0  0  0  0  0
   -3.2805   59.3064   79.6390 O   0  0  0  0  0  0  0  0  0  0  0  0
    4.0245   68.6568   83.7202 O   0  0  0  0  0  0  0  0  0  0  0  0
    4.5103   68.0598   84.9248 C   0  0  0  0  0  0  0  0  0  0  0  0
    6.3840   66.7081   85.9643 C   0  0  0  0  0  0  0  0  0  0  0  0
    5.8966   67.4494   84.7268 C   0  0  0  0  0  0  0  0  0  0  0  0
 44 45  1  0  0  0
 45 43  1  0  0  0
 43 42  1  0  0  0
 42  1  1  0  0  0
  1  2  1  0  0  0
  2  3  2  0  0  0
  3  4  1  0  0  0
  4 27  1  0  0  0
 27 28  2  0  0  0
 27 29  2  0  0  0
 27 30  1  0  0  0
 30 31  1  0  0  0
 31 32  1  0  0  0
 32 33  1  0  0  0
 33 36  1  0  0  0
 36 37  1  0  0  0
 37 38  1  0  0  0
 38 39  1  0  0  0
 39 40  2  0  0  0
 39 41  1  0  0  0
 33 34  1  0  0  0
 34 35  1  0  0  0
  4  5  2  0  0  0
  5  6  1  0  0  0
  6  7  1  0  0  0
  7  8  2  0  0  0
  8  9  1  0  0  0
  9 10  1  0  0  0
 10 24  1  0  0  0
 24 25  1  0  0  0
 25 26  1  0  0  0
 10 11  2  0  0  0
 11 18  1  0  0  0
 18 19  2  0  0  0
 19 20  1  0  0  0
 11 12  1  0  0  0
 12 22  1  0  0  0
 22 23  1  0  0  0
 12 13  1  0  0  0
 13 14  1  0  0  0
 14 15  2  0  0  0
 14 16  1  0  0  0
  6  1  2  0  0  0
 16  7  1  0  0  0
 35 30  1  0  0  0
 13  9  2  0  0  0
 20 21  1  0  0  0
 16 17  1  0  0  0
M  CHG 1  39   1
M  CHG 1  41  -1
M  END
> <minimizedAffinity>
-1.71893

$$$$



 45 48  0  0  0  0  0  0  0  0999 V2000
    2.8537   66.9570   83.8853 C   0  0  0  0  0  0  0  0  0  0  0  0
    3.4493   68.2156   84.0594 C   0  0  0  0  0  0  0  0  0  0  0  0
    3.0962   69.2977   83.2463 C   0  0  0  0  0  0  0  0  0  0  0  0
    2.1529   69.1224   82.2377 C   0  0  0  0  0  0  0  0  0  0  0  0
    1.5839   67.8691   82.0173 C   0  0  0  0  0  0  0  0  0  0  0  0
    1.9062   66.7844   82.8515 C   0  0  0  0  0  0  0  0  0  0  0  0
    1.1574   65.5072   82.5943 C   0  0  0  0  0  0  0  0  0  0  0  0
    1.0018   65.1007   81.3654 N   0  0  0  0  0  0  0  0  0  0  0  0
    0.2842   63.9127   81.2347 C   0  0  0  0  0  0  0  0  0  0  0  0
   -0.0154   63.2509   80.0313 C   0  0  0  0  0  0  0  0  0  0  0  0
   -0.7543   62.1134   80.3830 C   0  0  0  0  0  0  0  0  0  0  0  0
   -0.8968   62.1302   81.7718 N   0  0  0  0  0  0  0  0  0  0  0  0
   -0.2357   63.2208   82.2884 C   0  0  0  0  0  0  0  0  0  0  0  0
   -0.0580   63.6642   83.6357 C   0  0  0  0  0  0  0  0  0  0  0  0
   -0.4842   63.1140   84.6454 O   0  0  0  0  0  0  0  0  0  0  0  0
    0.6704   64.8287   83.6994 N   0  0  0  0  0  0  0  0  0  0  0  0
    0.8008   65.2160   84.6244 H   0  0  0  0  0  0  0  0  0  0  0  0
   -1.2654   61.1186   79.4613 C   0  0  0  0  0  0  0  0  0  0  0  0
   -2.2745   61.3383   78.6800 N   0  0  0  0  0  0  0  0  0  0  0  0
   -2.5293   60.1879   77.9219 O   0  0  0  0  0  0  0  0  0  0  0  0
   -3.3036   60.4534   77.3910 H   0  0  0  0  0  0  0  0  0  0  0  0
   -1.6549   61.1825   82.5774 C   0  0  0  0  0  0  0  0  0  0  0  0
   -3.1276   61.1543   82.2082 C   0  0  0  0  0  0  0  0  0  0  0  0
    0.4063   63.7017   78.6661 C   0  0  0  0  0  0  0  0  0  0  0  0
   -0.4944   64.8116   78.1213 C   0  0  0  0  0  0  0  0  0  0  0  0
   -1.3141   64.3324   76.9336 C   0  0  0  0  0  0  0  0  0  0  0  0
    1.7026   70.4861   81.1920 S   0  0  0  0  0  0  0  0  0  0  0  0
    0.2899   70.7479   81.3668 O   0  0  0  0  0  0  0  0  0  0  0  0
    2.2524   70.2261   79.8783 O   0  0  0  0  0  0  0  0  0  0  0  0
    2.5665   71.7917   81.8776 N   0  0  0  0  0  0  0  0  0  0  0  0
    1.7598   72.6962   82.7656 C   0  0  0  0  0  0  0  0  0  0  0  0
    2.3479   74.1180   82.8393 C   0  0  0  0  0  0  0  0  0  0  0  0
    2.4525   74.8122   81.5386 N   0  0  0  0  0  0  0  0  0  0  0  0
    2.6577   73.8426   80.4352 C   0  0  0  0  0  0  0  0  0  0  0  0
    3.3826   72.5590   80.8757 C   0  0  0  0  0  0  0  0  0  0  0  0
    1.3015   75.6853   81.2382 C   0  0  0  0  0  0  0  0  0  0  0  0
    0.6562   76.3148   82.4847 C   0  0  0  0  0  0  0  0  0  0  0  0
   -0.0889   77.4639   82.0863 O   0  0  0  0  0  0  0  0  0  0  0  0
   -0.7675   78.0704   83.1661 N   0  0  0  0  0  0  0  0  0  0  0  0
   -1.9522   78.2918   82.9228 O   0  0  0  0  0  0  0  0  0  0  0  0
   -0.1186   78.2878   84.1911 O   0  0  0  0  0  0  0  0  0  0  0  0
    3.1417   65.8638   84.6594 O   0  0  0  0  0  0  0  0  0  0  0  0
    4.4975   65.5571   84.9930 C   0  0  0  0  0  0  0  0  0  0  0  0
    6.2143   65.8787   86.8281 C   0  0  0  0  0  0  0  0  0  0  0  0
    4.7428   65.6706   86.4965 C   0  0  0  0  0  0  0  0  0  0  0  0
 44 45  1  0  0  0
 45 43  1  0  0  0
 43 42  1  0  0  0
 42  1  1  0  0  0
  1  2  1  0  0  0
  2  3  2  0  0  0
  3  4  1  0  0  0
  4 27  1  0  0  0
 27 28  2  0  0  0
 27 29  2  0  0  0
 27 30  1  0  0  0
 30 31  1  0  0  0
 31 32  1  0  0  0
 32 33  1  0  0  0
 33 36  1  0  0  0
 36 37  1  0  0  0
 37 38  1  0  0  0
 38 39  1  0  0  0
 39 40  2  0  0  0
 39 41  1  0  0  0
 33 34  1  0  0  0
 34 35  1  0  0  0
  4  5  2  0  0  0
  5  6  1  0  0  0
  6  7  1  0  0  0
  7  8  2  0  0  0
  8  9  1  0  0  0
  9 10  1  0  0  0
 10 24  1  0  0  0
 24 25  1  0  0  0
 25 26  1  0  0  0
 10 11  2  0  0  0
 11 18  1  0  0  0
 18 19  2  0  0  0
 19 20  1  0  0  0
 11 12  1  0  0  0
 12 22  1  0  0  0
 22 23  1  0  0  0
 12 13  1  0  0  0
 13 14  1  0  0  0
 14 15  2  0  0  0
 14 16  1  0  0  0
  6  1  2  0  0  0
 16  7  1  0  0  0
 35 30  1  0  0  0
 13  9  2  0  0  0
 20 21  1  0  0  0
 16 17  1  0  0  0
M  CHG 1  39   1
M  CHG 1  41  -1
M  END
> <minimizedAffinity>
-1.71666

$$$$



 45 48  0  0  0  0  0  0  0  0999 V2000
    3.4947   67.3357   83.9484 C   0  0  0  0  0  0  0  0  0  0  0  0
    4.1768   68.5529   83.7997 C   0  0  0  0  0  0  0  0  0  0  0  0
    3.6855   69.5550   82.9565 C   0  0  0  0  0  0  0  0  0  0  0  0
    2.5119   69.3381   82.2399 C   0  0  0  0  0  0  0  0  0  0  0  0
    1.8441   68.1183   82.3370 C   0  0  0  0  0  0  0  0  0  0  0  0
    2.3108   67.1188   83.2083 C   0  0  0  0  0  0  0  0  0  0  0  0
    1.4588   65.8857   83.3170 C   0  0  0  0  0  0  0  0  0  0  0  0
    0.9289   65.3848   82.2362 N   0  0  0  0  0  0  0  0  0  0  0  0
    0.1482   64.2492   82.4465 C   0  0  0  0  0  0  0  0  0  0  0  0
   -0.5240   63.5083   81.4591 C   0  0  0  0  0  0  0  0  0  0  0  0
   -1.1805   62.4673   82.1291 C   0  0  0  0  0  0  0  0  0  0  0  0
   -0.9070   62.6186   83.4898 N   0  0  0  0  0  0  0  0  0  0  0  0
   -0.0712   63.6962   83.6735 C   0  0  0  0  0  0  0  0  0  0  0  0
    0.5164   64.2426   84.8565 C   0  0  0  0  0  0  0  0  0  0  0  0
    0.3803   63.8191   85.9993 O   0  0  0  0  0  0  0  0  0  0  0  0
    1.2866   65.3481   84.5818 N   0  0  0  0  0  0  0  0  0  0  0  0
    1.7020   65.8048   85.3827 H   0  0  0  0  0  0  0  0  0  0  0  0
   -1.9877   61.4372   81.5065 C   0  0  0  0  0  0  0  0  0  0  0  0
   -3.1057   61.6899   80.9039 N   0  0  0  0  0  0  0  0  0  0  0  0
   -3.6480   60.4929   80.4179 O   0  0  0  0  0  0  0  0  0  0  0  0
   -4.4800   60.7915   80.0050 H   0  0  0  0  0  0  0  0  0  0  0  0
   -1.4390   61.8080   84.5768 C   0  0  0  0  0  0  0  0  0  0  0  0
   -2.6871   62.4131   85.1951 C   0  0  0  0  0  0  0  0  0  0  0  0
   -0.5017   63.8017   79.9899 C   0  0  0  0  0  0  0  0  0  0  0  0
    0.3136   62.7702   79.2081 C   0  0  0  0  0  0  0  0  0  0  0  0
   -0.5111   62.1279   78.1039 C   0  0  0  0  0  0  0  0  0  0  0  0
    1.8822   70.5989   81.1583 S   0  0  0  0  0  0  0  0  0  0  0  0
    0.4364   70.5704   81.2176 O   0  0  0  0  0  0  0  0  0  0  0  0
    2.5760   70.4727   79.8940 O   0  0  0  0  0  0  0  0  0  0  0  0
    2.4095   72.0410   81.9088 N   0  0  0  0  0  0  0  0  0  0  0  0
    1.3137   72.9406   82.4061 C   0  0  0  0  0  0  0  0  0  0  0  0
    1.7570   74.4139   82.4814 C   0  0  0  0  0  0  0  0  0  0  0  0
    2.2058   74.9911   81.1969 N   0  0  0  0  0  0  0  0  0  0  0  0
    2.7996   73.9480   80.3256 C   0  0  0  0  0  0  0  0  0  0  0  0
    3.4391   72.7882   81.1087 C   0  0  0  0  0  0  0  0  0  0  0  0
    1.1458   75.7153   80.4696 C   0  0  0  0  0  0  0  0  0  0  0  0
    0.2999   74.8196   79.5485 C   0  0  0  0  0  0  0  0  0  0  0  0
   -0.6551   75.6314   78.8678 O   0  0  0  0  0  0  0  0  0  0  0  0
   -1.9726   75.1390   78.9941 N   0  0  0  0  0  0  0  0  0  0  0  0
   -2.7628   75.9865   79.4051 O   0  0  0  0  0  0  0  0  0  0  0  0
   -2.1697   73.9640   78.6783 O   0  0  0  0  0  0  0  0  0  0  0  0
    3.9128   66.3233   84.7715 O   0  0  0  0  0  0  0  0  0  0  0  0
    5.3066   66.0349   84.9043 C   0  0  0  0  0  0  0  0  0  0  0  0
    5.1300   65.4213   87.3560 C   0  0  0  0  0  0  0  0  0  0  0  0
    5.8027   66.3140   86.3220 C   0  0  0  0  0  0  0  0  0  0  0  0
 44 45  1  0  0  0
 45 43  1  0  0  0
 43 42  1  0  0  0
 42  1  1  0  0  0
  1  2  1  0  0  0
  2  3  2  0  0  0
  3  4  1  0  0  0
  4 27  1  0  0  0
 27 28  2  0  0  0
 27 29  2  0  0  0
 27 30  1  0  0  0
 30 31  1  0  0  0
 31 32  1  0  0  0
 32 33  1  0  0  0
 33 36  1  0  0  0
 36 37  1  0  0  0
 37 38  1  0  0  0
 38 39  1  0  0  0
 39 40  2  0  0  0
 39 41  1  0  0  0
 33 34  1  0  0  0
 34 35  1  0  0  0
  4  5  2  0  0  0
  5  6  1  0  0  0
  6  7  1  0  0  0
  7  8  2  0  0  0
  8  9  1  0  0  0
  9 10  1  0  0  0
 10 24  1  0  0  0
 24 25  1  0  0  0
 25 26  1  0  0  0
 10 11  2  0  0  0
 11 18  1  0  0  0
 18 19  2  0  0  0
 19 20  1  0  0  0
 11 12  1  0  0  0
 12 22  1  0  0  0
 22 23  1  0  0  0
 12 13  1  0  0  0
 13 14  1  0  0  0
 14 15  2  0  0  0
 14 16  1  0  0  0
  6  1  2  0  0  0
 16  7  1  0  0  0
 35 30  1  0  0  0
 13  9  2  0  0  0
 20 21  1  0  0  0
 16 17  1  0  0  0
M  CHG 1  39   1
M  CHG 1  41  -1
M  END
> <minimizedAffinity>
-1.70942

$$$$
