


 40 43  0  0  0  0  0  0  0  0999 V2000
    0.4317   63.8743   83.6975 C   0  0  0  0  0  0  0  0  0  0  0  0
    1.2052   64.9735   83.2987 C   0  0  0  0  0  0  0  0  0  0  0  0
    1.6049   65.9147   84.2429 C   0  0  0  0  0  0  0  0  0  0  0  0
    1.2926   65.7003   85.5698 C   0  0  0  0  0  0  0  0  0  0  0  0
    0.5667   64.6374   85.9931 N   0  0  0  0  0  0  0  0  0  0  0  0
    0.1405   63.7516   85.0586 C   0  0  0  0  0  0  0  0  0  0  0  0
    0.0242   62.1871   79.1313 C   0  0  0  0  0  0  0  0  0  0  0  0
   -0.1946   62.2390   80.4830 C   0  0  0  0  0  0  0  0  0  0  0  0
    0.3469   63.1313   81.4075 N   0  0  0  0  0  0  0  0  0  0  0  0
   -0.0704   62.9552   82.6309 C   0  0  0  0  0  0  0  0  0  0  0  0
   -0.9625   61.9616   83.0155 N   0  0  0  0  0  0  0  0  0  0  0  0
   -1.5453   61.0433   82.1617 C   0  0  0  0  0  0  0  0  0  0  0  0
   -2.3425   60.2019   82.5656 O   0  0  0  0  0  0  0  0  0  0  0  0
   -1.1025   61.2256   80.7976 C   0  0  0  0  0  0  0  0  0  0  0  0
   -1.4556   60.5319   79.7080 N   0  0  0  0  0  0  0  0  0  0  0  0
   -0.7577   61.1320   78.7070 N   0  0  0  0  0  0  0  0  0  0  0  0
   -1.2711   61.8917   83.9763 H   0  0  0  0  0  0  0  0  0  0  0  0
    0.0893   64.1604   77.6041 C   0  0  0  0  0  0  0  0  0  0  0  0
    0.8821   63.0379   78.2594 C   0  0  0  0  0  0  0  0  0  0  0  0
   -0.8840   60.5749   77.3682 C   0  0  0  0  0  0  0  0  0  0  0  0
   -1.4812   59.1713   77.3824 C   0  0  0  0  0  0  0  0  0  0  0  0
   -2.7146   59.1039   76.6579 O   0  0  0  0  0  0  0  0  0  0  0  0
   -3.2984   60.3801   76.4290 C   0  0  0  0  0  0  0  0  0  0  0  0
    2.5369   67.3384   83.7799 S   0  0  0  0  0  0  0  0  0  0  0  0
    2.0023   68.4558   84.5268 O   0  0  0  0  0  0  0  0  0  0  0  0
    2.5889   67.3581   82.3337 O   0  0  0  0  0  0  0  0  0  0  0  0
    4.0902   67.0054   84.3499 N   0  0  0  0  0  0  0  0  0  0  0  0
    4.7021   67.9649   85.3102 C   0  0  0  0  0  0  0  0  0  0  0  0
    5.9939   67.3969   85.9271 C   0  0  0  0  0  0  0  0  0  0  0  0
    5.8201   66.1177   86.6481 N   0  0  0  0  0  0  0  0  0  0  0  0
    4.7405   65.3007   86.0495 C   0  0  0  0  0  0  0  0  0  0  0  0
    4.4884   65.5855   84.5566 C   0  0  0  0  0  0  0  0  0  0  0  0
    5.5953   66.2821   88.0916 C   0  0  0  0  0  0  0  0  0  0  0  0
    6.1694   65.1322   88.9124 C   0  0  0  0  0  0  0  0  0  0  0  0
   -0.6142   62.6747   85.4787 O   0  0  0  0  0  0  0  0  0  0  0  0
   -1.2925   62.8293   86.7399 C   0  0  0  0  0  0  0  0  0  0  0  0
   -2.8021   62.9138   86.5104 C   0  0  0  0  0  0  0  0  0  0  0  0
   -0.9427   61.5939   87.5905 C   0  0  0  0  0  0  0  0  0  0  0  0
   -0.0012   61.8658   88.6272 O   0  0  0  0  0  0  0  0  0  0  0  0
   -0.0858   63.1936   89.1277 C   0  0  0  0  0  0  0  0  0  0  0  0
 18 19  1  0  0  0
 19  7  1  0  0  0
  7  8  2  0  0  0
  8  9  1  0  0  0
  9 10  2  0  0  0
 10  1  1  0  0  0
  1  2  1  0  0  0
  2  3  2  0  0  0
  3 24  1  0  0  0
 24 25  2  0  0  0
 24 26  2  0  0  0
 24 27  1  0  0  0
 27 28  1  0  0  0
 28 29  1  0  0  0
 29 30  1  0  0  0
 30 33  1  0  0  0
 33 34  1  0  0  0
 30 31  1  0  0  0
 31 32  1  0  0  0
  3  4  1  0  0  0
  4  5  2  0  0  0
  5  6  1  0  0  0
  6 35  1  0  0  0
 35 36  1  0  0  0
 36 37  1  0  0  0
 36 38  1  0  0  0
 38 39  1  0  0  0
 39 40  1  0  0  0
 10 11  1  0  0  0
 11 12  1  0  0  0
 12 13  2  0  0  0
 12 14  1  0  0  0
 14 15  2  0  0  0
 15 16  1  0  0  0
 16 20  1  0  0  0
 20 21  1  0  0  0
 21 22  1  0  0  0
 22 23  1  0  0  0
 16  7  1  0  0  0
 14  8  1  0  0  0
  6  1  2  0  0  0
 32 27  1  0  0  0
 11 17  1  0  0  0
M  END
> <minimizedAffinity>
-9.04452

$$$$



 40 43  0  0  0  0  0  0  0  0999 V2000
    0.4494   64.2330   83.5231 C   0  0  0  0  0  0  0  0  0  0  0  0
    0.2818   63.4988   82.3405 C   0  0  0  0  0  0  0  0  0  0  0  0
   -0.3984   62.2850   82.3728 C   0  0  0  0  0  0  0  0  0  0  0  0
   -0.9612   61.8688   83.5619 C   0  0  0  0  0  0  0  0  0  0  0  0
   -0.8385   62.5646   84.7180 N   0  0  0  0  0  0  0  0  0  0  0  0
   -0.1322   63.7221   84.6863 C   0  0  0  0  0  0  0  0  0  0  0  0
    1.8244   68.5665   81.7362 C   0  0  0  0  0  0  0  0  0  0  0  0
    1.8494   67.4774   82.5674 C   0  0  0  0  0  0  0  0  0  0  0  0
    0.9996   66.3720   82.5612 N   0  0  0  0  0  0  0  0  0  0  0  0
    1.2858   65.4703   83.4593 C   0  0  0  0  0  0  0  0  0  0  0  0
    2.3293   65.5804   84.3706 N   0  0  0  0  0  0  0  0  0  0  0  0
    3.2159   66.6392   84.4388 C   0  0  0  0  0  0  0  0  0  0  0  0
    4.1296   66.6641   85.2581 O   0  0  0  0  0  0  0  0  0  0  0  0
    2.9216   67.6478   83.4458 C   0  0  0  0  0  0  0  0  0  0  0  0
    3.5646   68.7991   83.2126 N   0  0  0  0  0  0  0  0  0  0  0  0
    2.8799   69.3423   82.1708 N   0  0  0  0  0  0  0  0  0  0  0  0
    2.5196   64.8344   85.0267 H   0  0  0  0  0  0  0  0  0  0  0  0
   -0.2567   69.7661   81.0578 C   0  0  0  0  0  0  0  0  0  0  0  0
    0.9101   68.8980   80.6074 C   0  0  0  0  0  0  0  0  0  0  0  0
    3.3042   70.6500   81.6929 C   0  0  0  0  0  0  0  0  0  0  0  0
    2.9927   71.7580   82.6940 C   0  0  0  0  0  0  0  0  0  0  0  0
    1.5863   71.8913   82.9289 O   0  0  0  0  0  0  0  0  0  0  0  0
    1.0300   73.0599   82.3400 C   0  0  0  0  0  0  0  0  0  0  0  0
   -0.5912   61.3039   80.9201 S   0  0  0  0  0  0  0  0  0  0  0  0
   -1.3369   60.1246   81.3015 O   0  0  0  0  0  0  0  0  0  0  0  0
    0.7139   61.2000   80.3033 O   0  0  0  0  0  0  0  0  0  0  0  0
   -1.5633   62.2536   79.9192 N   0  0  0  0  0  0  0  0  0  0  0  0
   -1.1077   62.4871   78.5209 C   0  0  0  0  0  0  0  0  0  0  0  0
   -2.2116   63.1445   77.6719 C   0  0  0  0  0  0  0  0  0  0  0  0
   -3.4687   62.3701   77.5915 N   0  0  0  0  0  0  0  0  0  0  0  0
   -3.7059   61.5923   78.8285 C   0  0  0  0  0  0  0  0  0  0  0  0
   -3.0417   62.1877   80.0846 C   0  0  0  0  0  0  0  0  0  0  0  0
   -3.5447   61.4928   76.4143 C   0  0  0  0  0  0  0  0  0  0  0  0
   -3.2082   60.0411   76.7381 C   0  0  0  0  0  0  0  0  0  0  0  0
    0.0126   64.4289   85.8633 O   0  0  0  0  0  0  0  0  0  0  0  0
    0.1997   63.6431   87.0558 C   0  0  0  0  0  0  0  0  0  0  0  0
    1.6067   63.8689   87.6108 C   0  0  0  0  0  0  0  0  0  0  0  0
   -0.8628   64.1081   88.0692 C   0  0  0  0  0  0  0  0  0  0  0  0
   -1.6801   63.0479   88.5625 O   0  0  0  0  0  0  0  0  0  0  0  0
   -2.5369   62.4932   87.5731 C   0  0  0  0  0  0  0  0  0  0  0  0
 18 19  1  0  0  0
 19  7  1  0  0  0
  7  8  2  0  0  0
  8  9  1  0  0  0
  9 10  2  0  0  0
 10  1  1  0  0  0
  1  2  1  0  0  0
  2  3  2  0  0  0
  3 24  1  0  0  0
 24 25  2  0  0  0
 24 26  2  0  0  0
 24 27  1  0  0  0
 27 28  1  0  0  0
 28 29  1  0  0  0
 29 30  1  0  0  0
 30 33  1  0  0  0
 33 34  1  0  0  0
 30 31  1  0  0  0
 31 32  1  0  0  0
  3  4  1  0  0  0
  4  5  2  0  0  0
  5  6  1  0  0  0
  6 35  1  0  0  0
 35 36  1  0  0  0
 36 37  1  0  0  0
 36 38  1  0  0  0
 38 39  1  0  0  0
 39 40  1  0  0  0
 10 11  1  0  0  0
 11 12  1  0  0  0
 12 13  2  0  0  0
 12 14  1  0  0  0
 14 15  2  0  0  0
 15 16  1  0  0  0
 16 20  1  0  0  0
 20 21  1  0  0  0
 21 22  1  0  0  0
 22 23  1  0  0  0
 16  7  1  0  0  0
 14  8  1  0  0  0
  6  1  2  0  0  0
 32 27  1  0  0  0
 11 17  1  0  0  0
M  END
> <minimizedAffinity>
-8.92142

$$$$



 40 43  0  0  0  0  0  0  0  0999 V2000
    2.5536   66.6985   84.0123 C   0  0  0  0  0  0  0  0  0  0  0  0
    2.2170   67.5838   82.9785 C   0  0  0  0  0  0  0  0  0  0  0  0
    3.0435   68.6694   82.7037 C   0  0  0  0  0  0  0  0  0  0  0  0
    4.2212   68.8048   83.4097 C   0  0  0  0  0  0  0  0  0  0  0  0
    4.5886   67.9550   84.3991 N   0  0  0  0  0  0  0  0  0  0  0  0
    3.7525   66.9281   84.6921 C   0  0  0  0  0  0  0  0  0  0  0  0
   -1.0478   63.5348   83.0723 C   0  0  0  0  0  0  0  0  0  0  0  0
   -0.0928   64.1771   83.8160 C   0  0  0  0  0  0  0  0  0  0  0  0
    0.7964   65.1678   83.4016 N   0  0  0  0  0  0  0  0  0  0  0  0
    1.5770   65.6169   84.3454 C   0  0  0  0  0  0  0  0  0  0  0  0
    1.5615   65.1554   85.6562 N   0  0  0  0  0  0  0  0  0  0  0  0
    0.7104   64.1817   86.1455 C   0  0  0  0  0  0  0  0  0  0  0  0
    0.7367   63.8337   87.3223 O   0  0  0  0  0  0  0  0  0  0  0  0
   -0.1701   63.6752   85.1169 C   0  0  0  0  0  0  0  0  0  0  0  0
   -1.1216   62.7389   85.2224 N   0  0  0  0  0  0  0  0  0  0  0  0
   -1.6411   62.6681   83.9677 N   0  0  0  0  0  0  0  0  0  0  0  0
    2.1730   65.5624   86.3517 H   0  0  0  0  0  0  0  0  0  0  0  0
   -0.3479   63.1269   80.7113 C   0  0  0  0  0  0  0  0  0  0  0  0
   -1.4181   63.6884   81.6372 C   0  0  0  0  0  0  0  0  0  0  0  0
   -2.6896   61.6880   83.7256 C   0  0  0  0  0  0  0  0  0  0  0  0
   -2.2932   60.6723   82.6587 C   0  0  0  0  0  0  0  0  0  0  0  0
   -3.4003   60.3046   81.8280 O   0  0  0  0  0  0  0  0  0  0  0  0
   -3.1360   60.4685   80.4405 C   0  0  0  0  0  0  0  0  0  0  0  0
    2.6355   69.8360   81.4457 S   0  0  0  0  0  0  0  0  0  0  0  0
    1.5233   69.2857   80.7024 O   0  0  0  0  0  0  0  0  0  0  0  0
    3.8724   70.1984   80.7875 O   0  0  0  0  0  0  0  0  0  0  0  0
    2.0925   71.1825   82.3064 N   0  0  0  0  0  0  0  0  0  0  0  0
    3.0610   72.2840   82.5633 C   0  0  0  0  0  0  0  0  0  0  0  0
    2.3564   73.5335   83.1234 C   0  0  0  0  0  0  0  0  0  0  0  0
    1.2978   74.0855   82.2509 N   0  0  0  0  0  0  0  0  0  0  0  0
    0.6315   73.0208   81.4675 C   0  0  0  0  0  0  0  0  0  0  0  0
    0.6834   71.6284   82.1247 C   0  0  0  0  0  0  0  0  0  0  0  0
    1.7688   75.1560   81.3601 C   0  0  0  0  0  0  0  0  0  0  0  0
    1.5302   74.8446   79.8865 C   0  0  0  0  0  0  0  0  0  0  0  0
    4.1106   66.0672   85.7102 O   0  0  0  0  0  0  0  0  0  0  0  0
    5.4867   66.1216   86.1320 C   0  0  0  0  0  0  0  0  0  0  0  0
    5.5889   65.7694   87.6166 C   0  0  0  0  0  0  0  0  0  0  0  0
    6.2571   65.0969   85.2783 C   0  0  0  0  0  0  0  0  0  0  0  0
    7.1292   65.6958   84.3212 O   0  0  0  0  0  0  0  0  0  0  0  0
    8.1152   66.5347   84.9083 C   0  0  0  0  0  0  0  0  0  0  0  0
 18 19  1  0  0  0
 19  7  1  0  0  0
  7  8  2  0  0  0
  8  9  1  0  0  0
  9 10  2  0  0  0
 10  1  1  0  0  0
  1  2  1  0  0  0
  2  3  2  0  0  0
  3 24  1  0  0  0
 24 25  2  0  0  0
 24 26  2  0  0  0
 24 27  1  0  0  0
 27 28  1  0  0  0
 28 29  1  0  0  0
 29 30  1  0  0  0
 30 33  1  0  0  0
 33 34  1  0  0  0
 30 31  1  0  0  0
 31 32  1  0  0  0
  3  4  1  0  0  0
  4  5  2  0  0  0
  5  6  1  0  0  0
  6 35  1  0  0  0
 35 36  1  0  0  0
 36 37  1  0  0  0
 36 38  1  0  0  0
 38 39  1  0  0  0
 39 40  1  0  0  0
 10 11  1  0  0  0
 11 12  1  0  0  0
 12 13  2  0  0  0
 12 14  1  0  0  0
 14 15  2  0  0  0
 15 16  1  0  0  0
 16 20  1  0  0  0
 20 21  1  0  0  0
 21 22  1  0  0  0
 22 23  1  0  0  0
 16  7  1  0  0  0
 14  8  1  0  0  0
  6  1  2  0  0  0
 32 27  1  0  0  0
 11 17  1  0  0  0
M  END
> <minimizedAffinity>
-8.84440

$$$$



 40 43  0  0  0  0  0  0  0  0999 V2000
    0.0326   65.2124   80.7134 C   0  0  0  0  0  0  0  0  0  0  0  0
    0.0771   63.9881   80.0316 C   0  0  0  0  0  0  0  0  0  0  0  0
   -0.3213   63.9256   78.6995 C   0  0  0  0  0  0  0  0  0  0  0  0
   -0.6797   65.0927   78.0565 C   0  0  0  0  0  0  0  0  0  0  0  0
   -0.7119   66.2961   78.6784 N   0  0  0  0  0  0  0  0  0  0  0  0
   -0.3685   66.3384   79.9898 C   0  0  0  0  0  0  0  0  0  0  0  0
   -0.0821   63.4660   85.2741 C   0  0  0  0  0  0  0  0  0  0  0  0
    0.2549   64.3195   84.2564 C   0  0  0  0  0  0  0  0  0  0  0  0
   -0.0827   64.2233   82.9070 N   0  0  0  0  0  0  0  0  0  0  0  0
    0.3586   65.2068   82.1722 C   0  0  0  0  0  0  0  0  0  0  0  0
    1.1180   66.2642   82.6585 N   0  0  0  0  0  0  0  0  0  0  0  0
    1.4901   66.4336   83.9794 C   0  0  0  0  0  0  0  0  0  0  0  0
    2.1470   67.4037   84.3455 O   0  0  0  0  0  0  0  0  0  0  0  0
    1.0042   65.3577   84.8138 C   0  0  0  0  0  0  0  0  0  0  0  0
    1.1636   65.1901   86.1328 N   0  0  0  0  0  0  0  0  0  0  0  0
    0.4971   64.0333   86.3910 N   0  0  0  0  0  0  0  0  0  0  0  0
    1.4087   67.0134   82.0441 H   0  0  0  0  0  0  0  0  0  0  0  0
   -2.3800   62.4917   85.2975 C   0  0  0  0  0  0  0  0  0  0  0  0
   -0.8844   62.2106   85.2548 C   0  0  0  0  0  0  0  0  0  0  0  0
    0.5175   63.5332   87.7578 C   0  0  0  0  0  0  0  0  0  0  0  0
   -0.8155   63.7451   88.4685 C   0  0  0  0  0  0  0  0  0  0  0  0
   -0.9370   62.9292   89.6391 O   0  0  0  0  0  0  0  0  0  0  0  0
    0.1471   62.0239   89.8038 C   0  0  0  0  0  0  0  0  0  0  0  0
   -0.3285   62.3993   77.8161 S   0  0  0  0  0  0  0  0  0  0  0  0
    0.7441   61.5926   78.3558 O   0  0  0  0  0  0  0  0  0  0  0  0
   -0.3863   62.7261   76.4074 O   0  0  0  0  0  0  0  0  0  0  0  0
   -1.8000   61.6928   78.2452 N   0  0  0  0  0  0  0  0  0  0  0  0
   -1.7886   60.2723   78.6915 C   0  0  0  0  0  0  0  0  0  0  0  0
   -3.1475   59.8585   79.2863 C   0  0  0  0  0  0  0  0  0  0  0  0
   -3.5852   60.6697   80.4425 N   0  0  0  0  0  0  0  0  0  0  0  0
   -3.0971   62.0637   80.3421 C   0  0  0  0  0  0  0  0  0  0  0  0
   -2.8366   62.5380   78.8997 C   0  0  0  0  0  0  0  0  0  0  0  0
   -3.2132   60.0908   81.7416 C   0  0  0  0  0  0  0  0  0  0  0  0
   -1.8251   60.5214   82.2033 C   0  0  0  0  0  0  0  0  0  0  0  0
   -0.4149   67.5575   80.6360 O   0  0  0  0  0  0  0  0  0  0  0  0
    0.2161   68.6596   79.9564 C   0  0  0  0  0  0  0  0  0  0  0  0
   -0.2153   69.9797   80.5967 C   0  0  0  0  0  0  0  0  0  0  0  0
    1.7369   68.4609   80.0981 C   0  0  0  0  0  0  0  0  0  0  0  0
    2.3467   69.3731   81.0099 O   0  0  0  0  0  0  0  0  0  0  0  0
    3.4914   70.0223   80.4725 C   0  0  0  0  0  0  0  0  0  0  0  0
 18 19  1  0  0  0
 19  7  1  0  0  0
  7  8  2  0  0  0
  8  9  1  0  0  0
  9 10  2  0  0  0
 10  1  1  0  0  0
  1  2  1  0  0  0
  2  3  2  0  0  0
  3 24  1  0  0  0
 24 25  2  0  0  0
 24 26  2  0  0  0
 24 27  1  0  0  0
 27 28  1  0  0  0
 28 29  1  0  0  0
 29 30  1  0  0  0
 30 33  1  0  0  0
 33 34  1  0  0  0
 30 31  1  0  0  0
 31 32  1  0  0  0
  3  4  1  0  0  0
  4  5  2  0  0  0
  5  6  1  0  0  0
  6 35  1  0  0  0
 35 36  1  0  0  0
 36 37  1  0  0  0
 36 38  1  0  0  0
 38 39  1  0  0  0
 39 40  1  0  0  0
 10 11  1  0  0  0
 11 12  1  0  0  0
 12 13  2  0  0  0
 12 14  1  0  0  0
 14 15  2  0  0  0
 15 16  1  0  0  0
 16 20  1  0  0  0
 20 21  1  0  0  0
 21 22  1  0  0  0
 22 23  1  0  0  0
 16  7  1  0  0  0
 14  8  1  0  0  0
  6  1  2  0  0  0
 32 27  1  0  0  0
 11 17  1  0  0  0
M  END
> <minimizedAffinity>
-8.67363

$$$$



 40 43  0  0  0  0  0  0  0  0999 V2000
   -1.6427   62.6209   82.9431 C   0  0  0  0  0  0  0  0  0  0  0  0
   -2.0648   62.3946   81.6254 C   0  0  0  0  0  0  0  0  0  0  0  0
   -2.8487   61.2822   81.3337 C   0  0  0  0  0  0  0  0  0  0  0  0
   -3.2576   60.4662   82.3685 C   0  0  0  0  0  0  0  0  0  0  0  0
   -2.8874   60.6685   83.6562 N   0  0  0  0  0  0  0  0  0  0  0  0
   -2.0834   61.7277   83.9230 C   0  0  0  0  0  0  0  0  0  0  0  0
    0.9112   66.5987   81.7111 C   0  0  0  0  0  0  0  0  0  0  0  0
    0.4371   65.6042   82.5259 C   0  0  0  0  0  0  0  0  0  0  0  0
   -0.4628   64.5880   82.2070 N   0  0  0  0  0  0  0  0  0  0  0  0
   -0.7078   63.7617   83.1863 C   0  0  0  0  0  0  0  0  0  0  0  0
   -0.1508   63.8684   84.4550 N   0  0  0  0  0  0  0  0  0  0  0  0
    0.7495   64.8415   84.8481 C   0  0  0  0  0  0  0  0  0  0  0  0
    1.2188   64.8662   85.9820 O   0  0  0  0  0  0  0  0  0  0  0  0
    1.0417   65.7645   83.7745 C   0  0  0  0  0  0  0  0  0  0  0  0
    1.8650   66.8205   83.7855 N   0  0  0  0  0  0  0  0  0  0  0  0
    1.7689   67.3139   82.5220 N   0  0  0  0  0  0  0  0  0  0  0  0
   -0.3578   63.1801   85.1668 H   0  0  0  0  0  0  0  0  0  0  0  0
   -0.6570   67.7078   80.1170 C   0  0  0  0  0  0  0  0  0  0  0  0
    0.6198   66.8948   80.2802 C   0  0  0  0  0  0  0  0  0  0  0  0
    2.5218   68.5198   82.2093 C   0  0  0  0  0  0  0  0  0  0  0  0
    1.6568   69.7741   82.2833 C   0  0  0  0  0  0  0  0  0  0  0  0
    1.7531   70.5652   81.0935 O   0  0  0  0  0  0  0  0  0  0  0  0
    2.6519   70.0236   80.1339 C   0  0  0  0  0  0  0  0  0  0  0  0
   -3.3622   60.9306   79.6836 S   0  0  0  0  0  0  0  0  0  0  0  0
   -4.2268   62.0138   79.2694 O   0  0  0  0  0  0  0  0  0  0  0  0
   -3.8185   59.5572   79.6661 O   0  0  0  0  0  0  0  0  0  0  0  0
   -1.9323   61.0132   78.7908 N   0  0  0  0  0  0  0  0  0  0  0  0
   -1.8647   61.9910   77.6698 C   0  0  0  0  0  0  0  0  0  0  0  0
   -0.4297   62.1270   77.1276 C   0  0  0  0  0  0  0  0  0  0  0  0
    0.5690   62.5529   78.1314 N   0  0  0  0  0  0  0  0  0  0  0  0
    0.2207   62.0625   79.4840 C   0  0  0  0  0  0  0  0  0  0  0  0
   -0.6374   60.7831   79.4891 C   0  0  0  0  0  0  0  0  0  0  0  0
    0.7942   64.0055   78.1573 C   0  0  0  0  0  0  0  0  0  0  0  0
   -0.2526   64.7787   77.3625 C   0  0  0  0  0  0  0  0  0  0  0  0
   -1.6873   61.9316   85.2297 O   0  0  0  0  0  0  0  0  0  0  0  0
   -2.7319   62.2625   86.1645 C   0  0  0  0  0  0  0  0  0  0  0  0
   -3.0909   61.0320   86.9987 C   0  0  0  0  0  0  0  0  0  0  0  0
   -2.1867   63.3866   87.0652 C   0  0  0  0  0  0  0  0  0  0  0  0
   -1.9387   62.9701   88.4069 O   0  0  0  0  0  0  0  0  0  0  0  0
   -0.6162   63.2508   88.8461 C   0  0  0  0  0  0  0  0  0  0  0  0
 18 19  1  0  0  0
 19  7  1  0  0  0
  7  8  2  0  0  0
  8  9  1  0  0  0
  9 10  2  0  0  0
 10  1  1  0  0  0
  1  2  1  0  0  0
  2  3  2  0  0  0
  3 24  1  0  0  0
 24 25  2  0  0  0
 24 26  2  0  0  0
 24 27  1  0  0  0
 27 28  1  0  0  0
 28 29  1  0  0  0
 29 30  1  0  0  0
 30 33  1  0  0  0
 33 34  1  0  0  0
 30 31  1  0  0  0
 31 32  1  0  0  0
  3  4  1  0  0  0
  4  5  2  0  0  0
  5  6  1  0  0  0
  6 35  1  0  0  0
 35 36  1  0  0  0
 36 37  1  0  0  0
 36 38  1  0  0  0
 38 39  1  0  0  0
 39 40  1  0  0  0
 10 11  1  0  0  0
 11 12  1  0  0  0
 12 13  2  0  0  0
 12 14  1  0  0  0
 14 15  2  0  0  0
 15 16  1  0  0  0
 16 20  1  0  0  0
 20 21  1  0  0  0
 21 22  1  0  0  0
 22 23  1  0  0  0
 16  7  1  0  0  0
 14  8  1  0  0  0
  6  1  2  0  0  0
 32 27  1  0  0  0
 11 17  1  0  0  0
M  END
> <minimizedAffinity>
-8.58982

$$$$



 40 43  0  0  0  0  0  0  0  0999 V2000
   -0.3089   64.5837   80.7587 C   0  0  0  0  0  0  0  0  0  0  0  0
   -0.0554   65.9478   80.9597 C   0  0  0  0  0  0  0  0  0  0  0  0
    0.5143   66.7014   79.9377 C   0  0  0  0  0  0  0  0  0  0  0  0
    0.7461   66.1004   78.7174 C   0  0  0  0  0  0  0  0  0  0  0  0
    0.4917   64.7906   78.4814 N   0  0  0  0  0  0  0  0  0  0  0  0
   -0.0182   64.0532   79.4992 C   0  0  0  0  0  0  0  0  0  0  0  0
   -0.4359   63.1644   85.4313 C   0  0  0  0  0  0  0  0  0  0  0  0
   -0.8027   63.1998   84.1115 C   0  0  0  0  0  0  0  0  0  0  0  0
   -0.2818   64.0009   83.0961 N   0  0  0  0  0  0  0  0  0  0  0  0
   -0.8124   63.7923   81.9227 C   0  0  0  0  0  0  0  0  0  0  0  0
   -1.8239   62.8718   81.6764 N   0  0  0  0  0  0  0  0  0  0  0  0
   -2.3894   62.0400   82.6252 C   0  0  0  0  0  0  0  0  0  0  0  0
   -3.2685   61.2340   82.3351 O   0  0  0  0  0  0  0  0  0  0  0  0
   -1.8099   62.2491   83.9330 C   0  0  0  0  0  0  0  0  0  0  0  0
   -2.1011   61.6259   85.0819 N   0  0  0  0  0  0  0  0  0  0  0  0
   -1.2557   62.1991   85.9797 N   0  0  0  0  0  0  0  0  0  0  0  0
   -2.1770   62.7348   80.7384 H   0  0  0  0  0  0  0  0  0  0  0  0
    0.9235   65.2575   85.4647 C   0  0  0  0  0  0  0  0  0  0  0  0
    0.5968   63.9469   86.1671 C   0  0  0  0  0  0  0  0  0  0  0  0
   -1.3516   61.7689   87.3669 C   0  0  0  0  0  0  0  0  0  0  0  0
   -1.8632   62.8787   88.2799 C   0  0  0  0  0  0  0  0  0  0  0  0
   -0.9698   63.1338   89.3696 O   0  0  0  0  0  0  0  0  0  0  0  0
    0.1868   62.3069   89.3489 C   0  0  0  0  0  0  0  0  0  0  0  0
    0.8959   68.4085   80.1615 S   0  0  0  0  0  0  0  0  0  0  0  0
   -0.3166   69.1516   79.8969 O   0  0  0  0  0  0  0  0  0  0  0  0
    2.1130   68.6703   79.4234 O   0  0  0  0  0  0  0  0  0  0  0  0
    1.2514   68.5291   81.8070 N   0  0  0  0  0  0  0  0  0  0  0  0
    1.9285   67.3756   82.4613 C   0  0  0  0  0  0  0  0  0  0  0  0
    2.4108   67.7363   83.8787 C   0  0  0  0  0  0  0  0  0  0  0  0
    3.3503   68.8767   83.9367 N   0  0  0  0  0  0  0  0  0  0  0  0
    3.0781   69.8581   82.8625 C   0  0  0  0  0  0  0  0  0  0  0  0
    1.6202   69.8597   82.3646 C   0  0  0  0  0  0  0  0  0  0  0  0
    4.7644   68.4753   83.9153 C   0  0  0  0  0  0  0  0  0  0  0  0
    5.0117   67.1488   84.6256 C   0  0  0  0  0  0  0  0  0  0  0  0
   -0.2645   62.7138   79.2730 O   0  0  0  0  0  0  0  0  0  0  0  0
   -0.9668   62.3949   78.0565 C   0  0  0  0  0  0  0  0  0  0  0  0
   -0.1008   61.4901   77.1791 C   0  0  0  0  0  0  0  0  0  0  0  0
   -2.2639   61.6719   78.4652 C   0  0  0  0  0  0  0  0  0  0  0  0
   -2.0528   60.6037   79.3869 O   0  0  0  0  0  0  0  0  0  0  0  0
   -3.0886   59.6304   79.3642 C   0  0  0  0  0  0  0  0  0  0  0  0
 18 19  1  0  0  0
 19  7  1  0  0  0
  7  8  2  0  0  0
  8  9  1  0  0  0
  9 10  2  0  0  0
 10  1  1  0  0  0
  1  2  1  0  0  0
  2  3  2  0  0  0
  3 24  1  0  0  0
 24 25  2  0  0  0
 24 26  2  0  0  0
 24 27  1  0  0  0
 27 28  1  0  0  0
 28 29  1  0  0  0
 29 30  1  0  0  0
 30 33  1  0  0  0
 33 34  1  0  0  0
 30 31  1  0  0  0
 31 32  1  0  0  0
  3  4  1  0  0  0
  4  5  2  0  0  0
  5  6  1  0  0  0
  6 35  1  0  0  0
 35 36  1  0  0  0
 36 37  1  0  0  0
 36 38  1  0  0  0
 38 39  1  0  0  0
 39 40  1  0  0  0
 10 11  1  0  0  0
 11 12  1  0  0  0
 12 13  2  0  0  0
 12 14  1  0  0  0
 14 15  2  0  0  0
 15 16  1  0  0  0
 16 20  1  0  0  0
 20 21  1  0  0  0
 21 22  1  0  0  0
 22 23  1  0  0  0
 16  7  1  0  0  0
 14  8  1  0  0  0
  6  1  2  0  0  0
 32 27  1  0  0  0
 11 17  1  0  0  0
M  END
> <minimizedAffinity>
-8.53311

$$$$



 40 43  0  0  0  0  0  0  0  0999 V2000
    1.9108   66.3237   83.5209 C   0  0  0  0  0  0  0  0  0  0  0  0
    1.4412   67.3071   82.6388 C   0  0  0  0  0  0  0  0  0  0  0  0
    2.1144   68.5210   82.5375 C   0  0  0  0  0  0  0  0  0  0  0  0
    3.2792   68.6982   83.2557 C   0  0  0  0  0  0  0  0  0  0  0  0
    3.7738   67.7605   84.0996 N   0  0  0  0  0  0  0  0  0  0  0  0
    3.0838   66.5999   84.2281 C   0  0  0  0  0  0  0  0  0  0  0  0
   -0.6571   62.4755   81.9525 C   0  0  0  0  0  0  0  0  0  0  0  0
   -0.0798   63.3235   82.8610 C   0  0  0  0  0  0  0  0  0  0  0  0
    0.6983   64.4527   82.6087 N   0  0  0  0  0  0  0  0  0  0  0  0
    1.0895   65.0850   83.6805 C   0  0  0  0  0  0  0  0  0  0  0  0
    0.7895   64.6832   84.9766 N   0  0  0  0  0  0  0  0  0  0  0  0
    0.0234   63.5813   85.3094 C   0  0  0  0  0  0  0  0  0  0  0  0
   -0.2197   63.2934   86.4776 O   0  0  0  0  0  0  0  0  0  0  0  0
   -0.4279   62.8694   84.1349 C   0  0  0  0  0  0  0  0  0  0  0  0
   -1.1878   61.7687   84.0694 N   0  0  0  0  0  0  0  0  0  0  0  0
   -1.3130   61.5459   82.7338 N   0  0  0  0  0  0  0  0  0  0  0  0
    1.0985   65.2308   85.7690 H   0  0  0  0  0  0  0  0  0  0  0  0
    0.6256   61.8382   79.9083 C   0  0  0  0  0  0  0  0  0  0  0  0
   -0.6312   62.4946   80.4629 C   0  0  0  0  0  0  0  0  0  0  0  0
   -2.0590   60.3689   82.3130 C   0  0  0  0  0  0  0  0  0  0  0  0
   -3.4766   60.7143   81.8679 C   0  0  0  0  0  0  0  0  0  0  0  0
   -3.6862   60.4401   80.4781 O   0  0  0  0  0  0  0  0  0  0  0  0
   -4.1510   61.5696   79.7499 C   0  0  0  0  0  0  0  0  0  0  0  0
    1.5330   69.8054   81.4780 S   0  0  0  0  0  0  0  0  0  0  0  0
    0.1810   70.1140   81.8893 O   0  0  0  0  0  0  0  0  0  0  0  0
    1.8312   69.4017   80.1206 O   0  0  0  0  0  0  0  0  0  0  0  0
    2.5227   71.1189   81.8574 N   0  0  0  0  0  0  0  0  0  0  0  0
    3.3675   71.6925   80.7736 C   0  0  0  0  0  0  0  0  0  0  0  0
    4.0068   73.0256   81.2044 C   0  0  0  0  0  0  0  0  0  0  0  0
    3.0395   74.0730   81.5964 N   0  0  0  0  0  0  0  0  0  0  0  0
    1.8215   73.4870   82.2001 C   0  0  0  0  0  0  0  0  0  0  0  0
    2.0431   72.1118   82.8581 C   0  0  0  0  0  0  0  0  0  0  0  0
    2.6786   74.9811   80.4980 C   0  0  0  0  0  0  0  0  0  0  0  0
    3.8367   75.2362   79.5392 C   0  0  0  0  0  0  0  0  0  0  0  0
    3.5712   65.6457   85.0986 O   0  0  0  0  0  0  0  0  0  0  0  0
    4.8013   65.9721   85.7731 C   0  0  0  0  0  0  0  0  0  0  0  0
    4.8508   65.2702   87.1309 C   0  0  0  0  0  0  0  0  0  0  0  0
    5.9498   65.4849   84.8698 C   0  0  0  0  0  0  0  0  0  0  0  0
    6.9165   66.4948   84.5853 O   0  0  0  0  0  0  0  0  0  0  0  0
    8.2484   66.0953   84.8800 C   0  0  0  0  0  0  0  0  0  0  0  0
 18 19  1  0  0  0
 19  7  1  0  0  0
  7  8  2  0  0  0
  8  9  1  0  0  0
  9 10  2  0  0  0
 10  1  1  0  0  0
  1  2  1  0  0  0
  2  3  2  0  0  0
  3 24  1  0  0  0
 24 25  2  0  0  0
 24 26  2  0  0  0
 24 27  1  0  0  0
 27 28  1  0  0  0
 28 29  1  0  0  0
 29 30  1  0  0  0
 30 33  1  0  0  0
 33 34  1  0  0  0
 30 31  1  0  0  0
 31 32  1  0  0  0
  3  4  1  0  0  0
  4  5  2  0  0  0
  5  6  1  0  0  0
  6 35  1  0  0  0
 35 36  1  0  0  0
 36 37  1  0  0  0
 36 38  1  0  0  0
 38 39  1  0  0  0
 39 40  1  0  0  0
 10 11  1  0  0  0
 11 12  1  0  0  0
 12 13  2  0  0  0
 12 14  1  0  0  0
 14 15  2  0  0  0
 15 16  1  0  0  0
 16 20  1  0  0  0
 20 21  1  0  0  0
 21 22  1  0  0  0
 22 23  1  0  0  0
 16  7  1  0  0  0
 14  8  1  0  0  0
  6  1  2  0  0  0
 32 27  1  0  0  0
 11 17  1  0  0  0
M  END
> <minimizedAffinity>
-8.47539

$$$$



 40 43  0  0  0  0  0  0  0  0999 V2000
    0.5041   64.4809   83.0428 C   0  0  0  0  0  0  0  0  0  0  0  0
    1.2710   65.6394   82.8545 C   0  0  0  0  0  0  0  0  0  0  0  0
    1.7303   66.3497   83.9598 C   0  0  0  0  0  0  0  0  0  0  0  0
    1.4827   65.8500   85.2219 C   0  0  0  0  0  0  0  0  0  0  0  0
    0.7651   64.7215   85.4395 N   0  0  0  0  0  0  0  0  0  0  0  0
    0.2805   64.0630   84.3572 C   0  0  0  0  0  0  0  0  0  0  0  0
   -2.5658   61.5592   80.6133 C   0  0  0  0  0  0  0  0  0  0  0  0
   -1.5349   62.4455   80.7846 C   0  0  0  0  0  0  0  0  0  0  0  0
   -1.0935   63.0314   81.9704 N   0  0  0  0  0  0  0  0  0  0  0  0
   -0.0633   63.8191   81.8285 C   0  0  0  0  0  0  0  0  0  0  0  0
    0.5524   64.0867   80.6118 N   0  0  0  0  0  0  0  0  0  0  0  0
    0.1786   63.5444   79.3960 C   0  0  0  0  0  0  0  0  0  0  0  0
    0.7798   63.8092   78.3591 O   0  0  0  0  0  0  0  0  0  0  0  0
   -0.9577   62.6610   79.5314 C   0  0  0  0  0  0  0  0  0  0  0  0
   -1.5854   61.9601   78.5785 N   0  0  0  0  0  0  0  0  0  0  0  0
   -2.5606   61.2992   79.2579 N   0  0  0  0  0  0  0  0  0  0  0  0
    1.3664   64.6857   80.5684 H   0  0  0  0  0  0  0  0  0  0  0  0
   -2.8860   59.7887   82.3433 C   0  0  0  0  0  0  0  0  0  0  0  0
   -3.5057   60.9685   81.6072 C   0  0  0  0  0  0  0  0  0  0  0  0
   -3.4729   60.4659   78.4886 C   0  0  0  0  0  0  0  0  0  0  0  0
   -3.1294   60.4561   77.0023 C   0  0  0  0  0  0  0  0  0  0  0  0
   -2.7565   59.1514   76.5448 O   0  0  0  0  0  0  0  0  0  0  0  0
   -1.3488   58.9546   76.5052 C   0  0  0  0  0  0  0  0  0  0  0  0
    2.6565   67.8386   83.7717 S   0  0  0  0  0  0  0  0  0  0  0  0
    1.9931   68.8526   84.5618 O   0  0  0  0  0  0  0  0  0  0  0  0
    2.8823   68.0202   82.3538 O   0  0  0  0  0  0  0  0  0  0  0  0
    4.1410   67.4827   84.4916 N   0  0  0  0  0  0  0  0  0  0  0  0
    4.4175   68.0517   85.8396 C   0  0  0  0  0  0  0  0  0  0  0  0
    5.6833   67.4340   86.4623 C   0  0  0  0  0  0  0  0  0  0  0  0
    5.6383   65.9640   86.6162 N   0  0  0  0  0  0  0  0  0  0  0  0
    4.8271   65.3324   85.5512 C   0  0  0  0  0  0  0  0  0  0  0  0
    4.7545   66.1482   84.2464 C   0  0  0  0  0  0  0  0  0  0  0  0
    5.1733   65.5254   87.9401 C   0  0  0  0  0  0  0  0  0  0  0  0
    6.3197   65.1499   88.8730 C   0  0  0  0  0  0  0  0  0  0  0  0
   -0.4662   62.9216   84.5701 O   0  0  0  0  0  0  0  0  0  0  0  0
   -1.3196   62.9295   85.7304 C   0  0  0  0  0  0  0  0  0  0  0  0
   -2.7459   62.5520   85.3283 C   0  0  0  0  0  0  0  0  0  0  0  0
   -0.7437   61.8958   86.7163 C   0  0  0  0  0  0  0  0  0  0  0  0
   -0.1956   62.4802   87.8967 O   0  0  0  0  0  0  0  0  0  0  0  0
   -1.1247   63.2898   88.6052 C   0  0  0  0  0  0  0  0  0  0  0  0
 18 19  1  0  0  0
 19  7  1  0  0  0
  7  8  2  0  0  0
  8  9  1  0  0  0
  9 10  2  0  0  0
 10  1  1  0  0  0
  1  2  1  0  0  0
  2  3  2  0  0  0
  3 24  1  0  0  0
 24 25  2  0  0  0
 24 26  2  0  0  0
 24 27  1  0  0  0
 27 28  1  0  0  0
 28 29  1  0  0  0
 29 30  1  0  0  0
 30 33  1  0  0  0
 33 34  1  0  0  0
 30 31  1  0  0  0
 31 32  1  0  0  0
  3  4  1  0  0  0
  4  5  2  0  0  0
  5  6  1  0  0  0
  6 35  1  0  0  0
 35 36  1  0  0  0
 36 37  1  0  0  0
 36 38  1  0  0  0
 38 39  1  0  0  0
 39 40  1  0  0  0
 10 11  1  0  0  0
 11 12  1  0  0  0
 12 13  2  0  0  0
 12 14  1  0  0  0
 14 15  2  0  0  0
 15 16  1  0  0  0
 16 20  1  0  0  0
 20 21  1  0  0  0
 21 22  1  0  0  0
 22 23  1  0  0  0
 16  7  1  0  0  0
 14  8  1  0  0  0
  6  1  2  0  0  0
 32 27  1  0  0  0
 11 17  1  0  0  0
M  END
> <minimizedAffinity>
-8.46252

$$$$



 40 43  0  0  0  0  0  0  0  0999 V2000
    0.6177   64.6862   81.4971 C   0  0  0  0  0  0  0  0  0  0  0  0
    0.2792   64.6206   80.1381 C   0  0  0  0  0  0  0  0  0  0  0  0
   -0.1329   63.4105   79.5877 C   0  0  0  0  0  0  0  0  0  0  0  0
   -0.2727   62.3158   80.4159 C   0  0  0  0  0  0  0  0  0  0  0  0
    0.0234   62.3498   81.7377 N   0  0  0  0  0  0  0  0  0  0  0  0
    0.4707   63.5213   82.2545 C   0  0  0  0  0  0  0  0  0  0  0  0
    1.0566   69.5468   81.7086 C   0  0  0  0  0  0  0  0  0  0  0  0
    1.2984   68.2408   82.0456 C   0  0  0  0  0  0  0  0  0  0  0  0
    0.7109   67.0934   81.5143 N   0  0  0  0  0  0  0  0  0  0  0  0
    1.1650   65.9774   82.0145 C   0  0  0  0  0  0  0  0  0  0  0  0
    2.1365   65.9050   83.0056 N   0  0  0  0  0  0  0  0  0  0  0  0
    2.7686   66.9927   83.5794 C   0  0  0  0  0  0  0  0  0  0  0  0
    3.6344   66.8565   84.4388 O   0  0  0  0  0  0  0  0  0  0  0  0
    2.2856   68.2410   83.0334 C   0  0  0  0  0  0  0  0  0  0  0  0
    2.6672   69.4872   83.3410 N   0  0  0  0  0  0  0  0  0  0  0  0
    1.9061   70.2650   82.5255 N   0  0  0  0  0  0  0  0  0  0  0  0
    2.4690   65.0081   83.3348 H   0  0  0  0  0  0  0  0  0  0  0  0
   -0.8111   71.1584   81.3278 C   0  0  0  0  0  0  0  0  0  0  0  0
    0.1200   70.1270   80.7055 C   0  0  0  0  0  0  0  0  0  0  0  0
    2.0463   71.7088   82.6463 C   0  0  0  0  0  0  0  0  0  0  0  0
    3.2658   72.2339   81.8953 C   0  0  0  0  0  0  0  0  0  0  0  0
    3.2478   71.8616   80.5127 O   0  0  0  0  0  0  0  0  0  0  0  0
    4.3583   71.0571   80.1365 C   0  0  0  0  0  0  0  0  0  0  0  0
   -0.5218   63.2690   77.8734 S   0  0  0  0  0  0  0  0  0  0  0  0
    0.6859   62.8464   77.1987 O   0  0  0  0  0  0  0  0  0  0  0  0
   -1.2076   64.4855   77.4933 O   0  0  0  0  0  0  0  0  0  0  0  0
   -1.6388   62.0050   77.8171 N   0  0  0  0  0  0  0  0  0  0  0  0
   -1.1871   60.6543   78.2516 C   0  0  0  0  0  0  0  0  0  0  0  0
   -2.3728   59.6809   78.3866 C   0  0  0  0  0  0  0  0  0  0  0  0
   -3.4174   60.1129   79.3398 N   0  0  0  0  0  0  0  0  0  0  0  0
   -3.5265   61.5883   79.3920 C   0  0  0  0  0  0  0  0  0  0  0  0
   -3.0698   62.3001   78.1044 C   0  0  0  0  0  0  0  0  0  0  0  0
   -3.2415   59.5657   80.6929 C   0  0  0  0  0  0  0  0  0  0  0  0
   -3.3138   60.6367   81.7760 C   0  0  0  0  0  0  0  0  0  0  0  0
    0.7911   63.5606   83.5967 O   0  0  0  0  0  0  0  0  0  0  0  0
   -0.3180   63.6559   84.5108 C   0  0  0  0  0  0  0  0  0  0  0  0
   -0.8468   62.2575   84.8328 C   0  0  0  0  0  0  0  0  0  0  0  0
    0.2099   64.3416   85.7849 C   0  0  0  0  0  0  0  0  0  0  0  0
   -0.3723   63.8361   86.9852 O   0  0  0  0  0  0  0  0  0  0  0  0
    0.5889   63.5046   87.9785 C   0  0  0  0  0  0  0  0  0  0  0  0
 18 19  1  0  0  0
 19  7  1  0  0  0
  7  8  2  0  0  0
  8  9  1  0  0  0
  9 10  2  0  0  0
 10  1  1  0  0  0
  1  2  1  0  0  0
  2  3  2  0  0  0
  3 24  1  0  0  0
 24 25  2  0  0  0
 24 26  2  0  0  0
 24 27  1  0  0  0
 27 28  1  0  0  0
 28 29  1  0  0  0
 29 30  1  0  0  0
 30 33  1  0  0  0
 33 34  1  0  0  0
 30 31  1  0  0  0
 31 32  1  0  0  0
  3  4  1  0  0  0
  4  5  2  0  0  0
  5  6  1  0  0  0
  6 35  1  0  0  0
 35 36  1  0  0  0
 36 37  1  0  0  0
 36 38  1  0  0  0
 38 39  1  0  0  0
 39 40  1  0  0  0
 10 11  1  0  0  0
 11 12  1  0  0  0
 12 13  2  0  0  0
 12 14  1  0  0  0
 14 15  2  0  0  0
 15 16  1  0  0  0
 16 20  1  0  0  0
 20 21  1  0  0  0
 21 22  1  0  0  0
 22 23  1  0  0  0
 16  7  1  0  0  0
 14  8  1  0  0  0
  6  1  2  0  0  0
 32 27  1  0  0  0
 11 17  1  0  0  0
M  END
> <minimizedAffinity>
-8.38143

$$$$
