


 25 28  0  0  0  0  0  0  0  0999 V2000
    2.1706   66.2002   84.1931 C   0  0  0  0  0  0  0  0  0  0  0  0
    1.5545   65.4741   85.1415 N   0  0  0  0  0  0  0  0  0  0  0  0
    0.4922   64.7392   84.7794 C   0  0  0  0  0  0  0  0  0  0  0  0
    0.0019   64.6811   83.5301 N   0  0  0  0  0  0  0  0  0  0  0  0
    0.6227   65.3944   82.5881 C   0  0  0  0  0  0  0  0  0  0  0  0
    0.1351   65.3410   81.2878 C   0  0  0  0  0  0  0  0  0  0  0  0
    0.7333   66.0500   80.2428 C   0  0  0  0  0  0  0  0  0  0  0  0
    1.8518   66.8318   80.4937 C   0  0  0  0  0  0  0  0  0  0  0  0
    2.3578   66.9029   81.7897 C   0  0  0  0  0  0  0  0  0  0  0  0
    1.7423   66.1911   82.8531 C   0  0  0  0  0  0  0  0  0  0  0  0
   -0.1835   63.9456   85.8269 C   0  0  0  0  0  0  0  0  0  0  0  0
    0.1086   64.1306   87.1931 C   0  0  0  0  0  0  0  0  0  0  0  0
   -0.5286   63.3805   88.1872 C   0  0  0  0  0  0  0  0  0  0  0  0
   -1.4764   62.4239   87.8376 C   0  0  0  0  0  0  0  0  0  0  0  0
   -1.7874   62.2179   86.4971 C   0  0  0  0  0  0  0  0  0  0  0  0
   -1.1482   62.9704   85.5060 C   0  0  0  0  0  0  0  0  0  0  0  0
    3.2779   67.0167   84.5556 N   0  0  0  0  0  0  0  0  0  0  0  0
    2.9398   67.7788   85.1346 H   0  0  0  0  0  0  0  0  0  0  0  0
    6.3027   65.2004   88.2724 Cl  0  0  0  0  0  0  0  0  0  0  0  0
    6.0721   65.7872   86.6702 C   0  0  0  0  0  0  0  0  0  0  0  0
    7.1645   65.9092   85.8171 C   0  0  0  0  0  0  0  0  0  0  0  0
    6.9736   66.4028   84.5296 C   0  0  0  0  0  0  0  0  0  0  0  0
    5.6911   66.7593   84.1006 C   0  0  0  0  0  0  0  0  0  0  0  0
    4.5761   66.6060   84.9360 C   0  0  0  0  0  0  0  0  0  0  0  0
    4.7909   66.1427   86.2425 C   0  0  0  0  0  0  0  0  0  0  0  0
 19 20  1  0  0  0
 20 21  1  0  0  0
 21 22  2  0  0  0
 22 23  1  0  0  0
 23 24  2  0  0  0
 24 17  1  0  0  0
 17  1  1  0  0  0
  1  2  1  0  0  0
  2  3  2  0  0  0
  3 11  1  0  0  0
 11 12  2  0  0  0
 12 13  1  0  0  0
 13 14  2  0  0  0
 14 15  1  0  0  0
 15 16  2  0  0  0
  3  4  1  0  0  0
  4  5  2  0  0  0
  5  6  1  0  0  0
  6  7  2  0  0  0
  7  8  1  0  0  0
  8  9  2  0  0  0
  9 10  1  0  0  0
 24 25  1  0  0  0
 25 20  2  0  0  0
 10  1  2  0  0  0
 16 11  1  0  0  0
 10  5  1  0  0  0
 17 18  1  0  0  0
M  END
> <minimizedAffinity>
-10.41390

$$$$



 25 28  0  0  0  0  0  0  0  0999 V2000
    2.7692   67.3847   83.7108 C   0  0  0  0  0  0  0  0  0  0  0  0
    2.0744   66.3115   84.1251 N   0  0  0  0  0  0  0  0  0  0  0  0
    1.0468   65.8977   83.3685 C   0  0  0  0  0  0  0  0  0  0  0  0
    0.6648   66.4859   82.2228 N   0  0  0  0  0  0  0  0  0  0  0  0
    1.3638   67.5446   81.8081 C   0  0  0  0  0  0  0  0  0  0  0  0
    0.9890   68.1620   80.6208 C   0  0  0  0  0  0  0  0  0  0  0  0
    1.6742   69.2690   80.1131 C   0  0  0  0  0  0  0  0  0  0  0  0
    2.7673   69.7761   80.8009 C   0  0  0  0  0  0  0  0  0  0  0  0
    3.1609   69.1754   81.9947 C   0  0  0  0  0  0  0  0  0  0  0  0
    2.4569   68.0577   82.5156 C   0  0  0  0  0  0  0  0  0  0  0  0
    0.2841   64.7193   83.8306 C   0  0  0  0  0  0  0  0  0  0  0  0
    0.3906   64.2469   85.1540 C   0  0  0  0  0  0  0  0  0  0  0  0
   -0.3293   63.1314   85.5945 C   0  0  0  0  0  0  0  0  0  0  0  0
   -1.1759   62.4589   84.7189 C   0  0  0  0  0  0  0  0  0  0  0  0
   -1.3034   62.9012   83.4057 C   0  0  0  0  0  0  0  0  0  0  0  0
   -0.5820   64.0174   82.9693 C   0  0  0  0  0  0  0  0  0  0  0  0
    3.8417   67.8672   84.5117 N   0  0  0  0  0  0  0  0  0  0  0  0
    3.4542   68.4236   85.2670 H   0  0  0  0  0  0  0  0  0  0  0  0
    6.2317   65.2470   88.2109 Cl  0  0  0  0  0  0  0  0  0  0  0  0
    6.2115   65.9649   86.6461 C   0  0  0  0  0  0  0  0  0  0  0  0
    7.3506   65.9121   85.8490 C   0  0  0  0  0  0  0  0  0  0  0  0
    7.3334   66.5118   84.5928 C   0  0  0  0  0  0  0  0  0  0  0  0
    6.1744   67.1489   84.1381 C   0  0  0  0  0  0  0  0  0  0  0  0
    5.0077   67.1769   84.9146 C   0  0  0  0  0  0  0  0  0  0  0  0
    5.0535   66.6007   86.1928 C   0  0  0  0  0  0  0  0  0  0  0  0
 19 20  1  0  0  0
 20 21  1  0  0  0
 21 22  2  0  0  0
 22 23  1  0  0  0
 23 24  2  0  0  0
 24 17  1  0  0  0
 17  1  1  0  0  0
  1  2  1  0  0  0
  2  3  2  0  0  0
  3 11  1  0  0  0
 11 12  2  0  0  0
 12 13  1  0  0  0
 13 14  2  0  0  0
 14 15  1  0  0  0
 15 16  2  0  0  0
  3  4  1  0  0  0
  4  5  2  0  0  0
  5  6  1  0  0  0
  6  7  2  0  0  0
  7  8  1  0  0  0
  8  9  2  0  0  0
  9 10  1  0  0  0
 24 25  1  0  0  0
 25 20  2  0  0  0
 10  1  2  0  0  0
 16 11  1  0  0  0
 10  5  1  0  0  0
 17 18  1  0  0  0
M  END
> <minimizedAffinity>
-10.04936

$$$$



 25 28  0  0  0  0  0  0  0  0999 V2000
   -0.1227   63.5003   84.1421 C   0  0  0  0  0  0  0  0  0  0  0  0
   -0.7217   62.9316   83.0820 N   0  0  0  0  0  0  0  0  0  0  0  0
   -1.8346   62.2145   83.2987 C   0  0  0  0  0  0  0  0  0  0  0  0
   -2.3908   62.0260   84.5069 N   0  0  0  0  0  0  0  0  0  0  0  0
   -1.8000   62.6014   85.5563 C   0  0  0  0  0  0  0  0  0  0  0  0
   -2.3649   62.4246   86.8137 C   0  0  0  0  0  0  0  0  0  0  0  0
   -1.8136   63.0010   87.9611 C   0  0  0  0  0  0  0  0  0  0  0  0
   -0.6704   63.7804   87.8580 C   0  0  0  0  0  0  0  0  0  0  0  0
   -0.0846   63.9704   86.6085 C   0  0  0  0  0  0  0  0  0  0  0  0
   -0.6390   63.3748   85.4447 C   0  0  0  0  0  0  0  0  0  0  0  0
   -2.4872   61.5885   82.1299 C   0  0  0  0  0  0  0  0  0  0  0  0
   -3.0370   62.3656   81.0907 C   0  0  0  0  0  0  0  0  0  0  0  0
   -3.6560   61.7763   79.9833 C   0  0  0  0  0  0  0  0  0  0  0  0
   -3.7404   60.3909   79.8882 C   0  0  0  0  0  0  0  0  0  0  0  0
   -3.2065   59.5959   80.8977 C   0  0  0  0  0  0  0  0  0  0  0  0
   -2.5879   60.1891   82.0033 C   0  0  0  0  0  0  0  0  0  0  0  0
    1.0788   64.2367   83.9465 N   0  0  0  0  0  0  0  0  0  0  0  0
    1.7702   63.6201   83.5318 H   0  0  0  0  0  0  0  0  0  0  0  0
    0.1616   67.6262   80.2139 Cl  0  0  0  0  0  0  0  0  0  0  0  0
    0.8557   67.2107   81.7338 C   0  0  0  0  0  0  0  0  0  0  0  0
    1.5915   68.1589   82.4377 C   0  0  0  0  0  0  0  0  0  0  0  0
    2.1663   67.8100   83.6565 C   0  0  0  0  0  0  0  0  0  0  0  0
    1.9914   66.5203   84.1683 C   0  0  0  0  0  0  0  0  0  0  0  0
    1.2213   65.5666   83.4886 C   0  0  0  0  0  0  0  0  0  0  0  0
    0.6803   65.9225   82.2442 C   0  0  0  0  0  0  0  0  0  0  0  0
 19 20  1  0  0  0
 20 21  1  0  0  0
 21 22  2  0  0  0
 22 23  1  0  0  0
 23 24  2  0  0  0
 24 17  1  0  0  0
 17  1  1  0  0  0
  1  2  1  0  0  0
  2  3  2  0  0  0
  3 11  1  0  0  0
 11 12  2  0  0  0
 12 13  1  0  0  0
 13 14  2  0  0  0
 14 15  1  0  0  0
 15 16  2  0  0  0
  3  4  1  0  0  0
  4  5  2  0  0  0
  5  6  1  0  0  0
  6  7  2  0  0  0
  7  8  1  0  0  0
  8  9  2  0  0  0
  9 10  1  0  0  0
 24 25  1  0  0  0
 25 20  2  0  0  0
 10  1  2  0  0  0
 16 11  1  0  0  0
 10  5  1  0  0  0
 17 18  1  0  0  0
M  END
> <minimizedAffinity>
-10.04777

$$$$



 25 28  0  0  0  0  0  0  0  0999 V2000
   -0.2264   63.2439   82.8863 C   0  0  0  0  0  0  0  0  0  0  0  0
   -0.8883   62.7026   81.8495 N   0  0  0  0  0  0  0  0  0  0  0  0
   -0.9955   63.4267   80.7252 C   0  0  0  0  0  0  0  0  0  0  0  0
   -0.4851   64.6591   80.5666 N   0  0  0  0  0  0  0  0  0  0  0  0
    0.1814   65.1895   81.5942 C   0  0  0  0  0  0  0  0  0  0  0  0
    0.7237   66.4606   81.4466 C   0  0  0  0  0  0  0  0  0  0  0  0
    1.4434   67.0823   82.4704 C   0  0  0  0  0  0  0  0  0  0  0  0
    1.6354   66.4216   83.6753 C   0  0  0  0  0  0  0  0  0  0  0  0
    1.0994   65.1474   83.8479 C   0  0  0  0  0  0  0  0  0  0  0  0
    0.3584   64.5212   82.8109 C   0  0  0  0  0  0  0  0  0  0  0  0
   -1.7274   62.8279   79.5896 C   0  0  0  0  0  0  0  0  0  0  0  0
   -2.8688   62.0263   79.7907 C   0  0  0  0  0  0  0  0  0  0  0  0
   -3.5635   61.4574   78.7180 C   0  0  0  0  0  0  0  0  0  0  0  0
   -3.1316   61.6772   77.4138 C   0  0  0  0  0  0  0  0  0  0  0  0
   -2.0082   62.4648   77.1822 C   0  0  0  0  0  0  0  0  0  0  0  0
   -1.3165   63.0323   78.2577 C   0  0  0  0  0  0  0  0  0  0  0  0
   -0.1278   62.5132   84.1031 N   0  0  0  0  0  0  0  0  0  0  0  0
    0.8519   62.3173   84.2823 H   0  0  0  0  0  0  0  0  0  0  0  0
    0.0625   63.2307   89.1738 Cl  0  0  0  0  0  0  0  0  0  0  0  0
   -0.8272   63.0142   87.7156 C   0  0  0  0  0  0  0  0  0  0  0  0
   -2.2174   62.9732   87.7563 C   0  0  0  0  0  0  0  0  0  0  0  0
   -2.9295   62.7782   86.5762 C   0  0  0  0  0  0  0  0  0  0  0  0
   -2.2476   62.6379   85.3632 C   0  0  0  0  0  0  0  0  0  0  0  0
   -0.8494   62.7151   85.3019 C   0  0  0  0  0  0  0  0  0  0  0  0
   -0.1453   62.8744   86.5047 C   0  0  0  0  0  0  0  0  0  0  0  0
 19 20  1  0  0  0
 20 21  1  0  0  0
 21 22  2  0  0  0
 22 23  1  0  0  0
 23 24  2  0  0  0
 24 17  1  0  0  0
 17  1  1  0  0  0
  1  2  1  0  0  0
  2  3  2  0  0  0
  3 11  1  0  0  0
 11 12  2  0  0  0
 12 13  1  0  0  0
 13 14  2  0  0  0
 14 15  1  0  0  0
 15 16  2  0  0  0
  3  4  1  0  0  0
  4  5  2  0  0  0
  5  6  1  0  0  0
  6  7  2  0  0  0
  7  8  1  0  0  0
  8  9  2  0  0  0
  9 10  1  0  0  0
 24 25  1  0  0  0
 25 20  2  0  0  0
 10  1  2  0  0  0
 16 11  1  0  0  0
 10  5  1  0  0  0
 17 18  1  0  0  0
M  END
> <minimizedAffinity>
-10.04129

$$$$



 25 28  0  0  0  0  0  0  0  0999 V2000
    0.8429   65.0916   84.4008 C   0  0  0  0  0  0  0  0  0  0  0  0
    0.8170   64.8365   83.0816 N   0  0  0  0  0  0  0  0  0  0  0  0
    0.2610   63.6853   82.6749 C   0  0  0  0  0  0  0  0  0  0  0  0
   -0.2718   62.7687   83.4997 N   0  0  0  0  0  0  0  0  0  0  0  0
   -0.2546   63.0300   84.8085 C   0  0  0  0  0  0  0  0  0  0  0  0
   -0.8083   62.0973   85.6775 C   0  0  0  0  0  0  0  0  0  0  0  0
   -0.8387   62.2996   87.0598 C   0  0  0  0  0  0  0  0  0  0  0  0
   -0.3086   63.4642   87.5964 C   0  0  0  0  0  0  0  0  0  0  0  0
    0.2539   64.4131   86.7456 C   0  0  0  0  0  0  0  0  0  0  0  0
    0.2947   64.2014   85.3420 C   0  0  0  0  0  0  0  0  0  0  0  0
    0.2383   63.4084   81.2235 C   0  0  0  0  0  0  0  0  0  0  0  0
    0.2990   62.0917   80.7248 C   0  0  0  0  0  0  0  0  0  0  0  0
    0.2784   61.8261   79.3515 C   0  0  0  0  0  0  0  0  0  0  0  0
    0.1965   62.8747   78.4408 C   0  0  0  0  0  0  0  0  0  0  0  0
    0.1345   64.1861   78.9017 C   0  0  0  0  0  0  0  0  0  0  0  0
    0.1549   64.4474   80.2758 C   0  0  0  0  0  0  0  0  0  0  0  0
    1.4582   66.2883   84.8631 N   0  0  0  0  0  0  0  0  0  0  0  0
    1.2043   66.4253   85.8363 H   0  0  0  0  0  0  0  0  0  0  0  0
    6.4982   65.4015   85.1364 Cl  0  0  0  0  0  0  0  0  0  0  0  0
    5.1672   66.4161   84.7319 C   0  0  0  0  0  0  0  0  0  0  0  0
    5.4014   67.6876   84.2177 C   0  0  0  0  0  0  0  0  0  0  0  0
    4.3207   68.5098   83.9114 C   0  0  0  0  0  0  0  0  0  0  0  0
    3.0146   68.0508   84.1097 C   0  0  0  0  0  0  0  0  0  0  0  0
    2.7633   66.7587   84.5911 C   0  0  0  0  0  0  0  0  0  0  0  0
    3.8632   65.9567   84.9301 C   0  0  0  0  0  0  0  0  0  0  0  0
 19 20  1  0  0  0
 20 21  1  0  0  0
 21 22  2  0  0  0
 22 23  1  0  0  0
 23 24  2  0  0  0
 24 17  1  0  0  0
 17  1  1  0  0  0
  1  2  1  0  0  0
  2  3  2  0  0  0
  3 11  1  0  0  0
 11 12  2  0  0  0
 12 13  1  0  0  0
 13 14  2  0  0  0
 14 15  1  0  0  0
 15 16  2  0  0  0
  3  4  1  0  0  0
  4  5  2  0  0  0
  5  6  1  0  0  0
  6  7  2  0  0  0
  7  8  1  0  0  0
  8  9  2  0  0  0
  9 10  1  0  0  0
 24 25  1  0  0  0
 25 20  2  0  0  0
 10  1  2  0  0  0
 16 11  1  0  0  0
 10  5  1  0  0  0
 17 18  1  0  0  0
M  END
> <minimizedAffinity>
-10.02460

$$$$



 25 28  0  0  0  0  0  0  0  0999 V2000
   -0.5176   63.2925   83.9594 C   0  0  0  0  0  0  0  0  0  0  0  0
    0.0649   64.3375   83.3474 N   0  0  0  0  0  0  0  0  0  0  0  0
    0.7055   65.2357   84.1107 C   0  0  0  0  0  0  0  0  0  0  0  0
    0.8029   65.1605   85.4484 N   0  0  0  0  0  0  0  0  0  0  0  0
    0.2330   64.1156   86.0524 C   0  0  0  0  0  0  0  0  0  0  0  0
    0.3299   64.0159   87.4351 C   0  0  0  0  0  0  0  0  0  0  0  0
   -0.2306   62.9486   88.1419 C   0  0  0  0  0  0  0  0  0  0  0  0
   -0.9032   61.9473   87.4563 C   0  0  0  0  0  0  0  0  0  0  0  0
   -1.0153   62.0263   86.0700 C   0  0  0  0  0  0  0  0  0  0  0  0
   -0.4553   63.1171   85.3539 C   0  0  0  0  0  0  0  0  0  0  0  0
    1.3412   66.3846   83.4328 C   0  0  0  0  0  0  0  0  0  0  0  0
    2.1230   67.3174   84.1433 C   0  0  0  0  0  0  0  0  0  0  0  0
    2.7256   68.4064   83.5047 C   0  0  0  0  0  0  0  0  0  0  0  0
    2.5601   68.5895   82.1355 C   0  0  0  0  0  0  0  0  0  0  0  0
    1.7945   67.6854   81.4057 C   0  0  0  0  0  0  0  0  0  0  0  0
    1.1939   66.5974   82.0480 C   0  0  0  0  0  0  0  0  0  0  0  0
   -1.2342   62.3434   83.1783 N   0  0  0  0  0  0  0  0  0  0  0  0
   -2.1962   62.3216   83.5013 H   0  0  0  0  0  0  0  0  0  0  0  0
   -3.7088   61.9777   78.7057 Cl  0  0  0  0  0  0  0  0  0  0  0  0
   -2.2661   61.8842   79.6407 C   0  0  0  0  0  0  0  0  0  0  0  0
   -1.0703   61.5219   79.0285 C   0  0  0  0  0  0  0  0  0  0  0  0
    0.0883   61.4293   79.7944 C   0  0  0  0  0  0  0  0  0  0  0  0
    0.0456   61.7111   81.1636 C   0  0  0  0  0  0  0  0  0  0  0  0
   -1.1437   62.1141   81.7863 C   0  0  0  0  0  0  0  0  0  0  0  0
   -2.3096   62.1661   81.0080 C   0  0  0  0  0  0  0  0  0  0  0  0
 19 20  1  0  0  0
 20 21  1  0  0  0
 21 22  2  0  0  0
 22 23  1  0  0  0
 23 24  2  0  0  0
 24 17  1  0  0  0
 17  1  1  0  0  0
  1  2  1  0  0  0
  2  3  2  0  0  0
  3 11  1  0  0  0
 11 12  2  0  0  0
 12 13  1  0  0  0
 13 14  2  0  0  0
 14 15  1  0  0  0
 15 16  2  0  0  0
  3  4  1  0  0  0
  4  5  2  0  0  0
  5  6  1  0  0  0
  6  7  2  0  0  0
  7  8  1  0  0  0
  8  9  2  0  0  0
  9 10  1  0  0  0
 24 25  1  0  0  0
 25 20  2  0  0  0
 10  1  2  0  0  0
 16 11  1  0  0  0
 10  5  1  0  0  0
 17 18  1  0  0  0
M  END
> <minimizedAffinity>
-10.00283

$$$$



 25 28  0  0  0  0  0  0  0  0999 V2000
    3.0127   67.5892   84.4988 C   0  0  0  0  0  0  0  0  0  0  0  0
    1.9294   66.7962   84.5592 N   0  0  0  0  0  0  0  0  0  0  0  0
    2.1032   65.5231   84.9447 C   0  0  0  0  0  0  0  0  0  0  0  0
    3.2899   64.9868   85.2743 N   0  0  0  0  0  0  0  0  0  0  0  0
    4.3623   65.7799   85.2242 C   0  0  0  0  0  0  0  0  0  0  0  0
    5.5980   65.2455   85.5692 C   0  0  0  0  0  0  0  0  0  0  0  0
    6.7669   66.0111   85.5522 C   0  0  0  0  0  0  0  0  0  0  0  0
    6.7080   67.3483   85.1868 C   0  0  0  0  0  0  0  0  0  0  0  0
    5.4810   67.9061   84.8347 C   0  0  0  0  0  0  0  0  0  0  0  0
    4.2956   67.1243   84.8412 C   0  0  0  0  0  0  0  0  0  0  0  0
    0.9090   64.6547   85.0060 C   0  0  0  0  0  0  0  0  0  0  0  0
    0.4001   64.1896   86.2351 C   0  0  0  0  0  0  0  0  0  0  0  0
   -0.7296   63.3669   86.2966 C   0  0  0  0  0  0  0  0  0  0  0  0
   -1.3796   62.9881   85.1262 C   0  0  0  0  0  0  0  0  0  0  0  0
   -0.9020   63.4314   83.8968 C   0  0  0  0  0  0  0  0  0  0  0  0
    0.2279   64.2544   83.8397 C   0  0  0  0  0  0  0  0  0  0  0  0
    2.8634   68.9341   84.0590 N   0  0  0  0  0  0  0  0  0  0  0  0
    3.4834   69.5223   84.6065 H   0  0  0  0  0  0  0  0  0  0  0  0
   -0.2251   69.6088   80.0256 Cl  0  0  0  0  0  0  0  0  0  0  0  0
    1.3231   69.7148   80.7714 C   0  0  0  0  0  0  0  0  0  0  0  0
    2.4078   70.1927   80.0426 C   0  0  0  0  0  0  0  0  0  0  0  0
    3.6606   70.2572   80.6459 C   0  0  0  0  0  0  0  0  0  0  0  0
    3.8175   69.8552   81.9762 C   0  0  0  0  0  0  0  0  0  0  0  0
    2.7266   69.4077   82.7340 C   0  0  0  0  0  0  0  0  0  0  0  0
    1.4788   69.3134   82.1001 C   0  0  0  0  0  0  0  0  0  0  0  0
 19 20  1  0  0  0
 20 21  1  0  0  0
 21 22  2  0  0  0
 22 23  1  0  0  0
 23 24  2  0  0  0
 24 17  1  0  0  0
 17  1  1  0  0  0
  1  2  1  0  0  0
  2  3  2  0  0  0
  3 11  1  0  0  0
 11 12  2  0  0  0
 12 13  1  0  0  0
 13 14  2  0  0  0
 14 15  1  0  0  0
 15 16  2  0  0  0
  3  4  1  0  0  0
  4  5  2  0  0  0
  5  6  1  0  0  0
  6  7  2  0  0  0
  7  8  1  0  0  0
  8  9  2  0  0  0
  9 10  1  0  0  0
 24 25  1  0  0  0
 25 20  2  0  0  0
 10  1  2  0  0  0
 16 11  1  0  0  0
 10  5  1  0  0  0
 17 18  1  0  0  0
M  END
> <minimizedAffinity>
-9.99444

$$$$



 25 28  0  0  0  0  0  0  0  0999 V2000
    2.2771   65.1923   85.5948 C   0  0  0  0  0  0  0  0  0  0  0  0
    1.5265   65.6541   84.5802 N   0  0  0  0  0  0  0  0  0  0  0  0
    2.1325   66.3838   83.6315 C   0  0  0  0  0  0  0  0  0  0  0  0
    3.4416   66.6849   83.6284 N   0  0  0  0  0  0  0  0  0  0  0  0
    4.1866   66.2154   84.6313 C   0  0  0  0  0  0  0  0  0  0  0  0
    5.5449   66.5095   84.6415 C   0  0  0  0  0  0  0  0  0  0  0  0
    6.3951   66.0482   85.6500 C   0  0  0  0  0  0  0  0  0  0  0  0
    5.8840   65.2675   86.6768 C   0  0  0  0  0  0  0  0  0  0  0  0
    4.5251   64.9611   86.6895 C   0  0  0  0  0  0  0  0  0  0  0  0
    3.6599   65.4399   85.6704 C   0  0  0  0  0  0  0  0  0  0  0  0
    1.3016   66.8919   82.5200 C   0  0  0  0  0  0  0  0  0  0  0  0
    1.3584   68.2408   82.1162 C   0  0  0  0  0  0  0  0  0  0  0  0
    0.5728   68.7252   81.0650 C   0  0  0  0  0  0  0  0  0  0  0  0
   -0.2918   67.8691   80.3902 C   0  0  0  0  0  0  0  0  0  0  0  0
   -0.3703   66.5313   80.7647 C   0  0  0  0  0  0  0  0  0  0  0  0
    0.4174   66.0508   81.8162 C   0  0  0  0  0  0  0  0  0  0  0  0
    1.6543   64.4458   86.6336 N   0  0  0  0  0  0  0  0  0  0  0  0
    1.8590   64.8956   87.5202 H   0  0  0  0  0  0  0  0  0  0  0  0
   -2.0211   62.1475   83.9002 Cl  0  0  0  0  0  0  0  0  0  0  0  0
   -1.4278   62.7962   85.3807 C   0  0  0  0  0  0  0  0  0  0  0  0
   -2.2383   62.7856   86.5115 C   0  0  0  0  0  0  0  0  0  0  0  0
   -1.7592   63.3295   87.7000 C   0  0  0  0  0  0  0  0  0  0  0  0
   -0.4698   63.8687   87.7524 C   0  0  0  0  0  0  0  0  0  0  0  0
    0.3714   63.8518   86.6314 C   0  0  0  0  0  0  0  0  0  0  0  0
   -0.1399   63.3342   85.4321 C   0  0  0  0  0  0  0  0  0  0  0  0
 19 20  1  0  0  0
 20 21  1  0  0  0
 21 22  2  0  0  0
 22 23  1  0  0  0
 23 24  2  0  0  0
 24 17  1  0  0  0
 17  1  1  0  0  0
  1  2  1  0  0  0
  2  3  2  0  0  0
  3 11  1  0  0  0
 11 12  2  0  0  0
 12 13  1  0  0  0
 13 14  2  0  0  0
 14 15  1  0  0  0
 15 16  2  0  0  0
  3  4  1  0  0  0
  4  5  2  0  0  0
  5  6  1  0  0  0
  6  7  2  0  0  0
  7  8  1  0  0  0
  8  9  2  0  0  0
  9 10  1  0  0  0
 24 25  1  0  0  0
 25 20  2  0  0  0
 10  1  2  0  0  0
 16 11  1  0  0  0
 10  5  1  0  0  0
 17 18  1  0  0  0
M  END
> <minimizedAffinity>
-9.98157

$$$$



 25 28  0  0  0  0  0  0  0  0999 V2000
    2.7864   67.4480   83.9595 C   0  0  0  0  0  0  0  0  0  0  0  0
    1.9809   66.3879   84.1425 N   0  0  0  0  0  0  0  0  0  0  0  0
    1.1189   66.0770   83.1627 C   0  0  0  0  0  0  0  0  0  0  0  0
    1.0064   66.7563   82.0093 N   0  0  0  0  0  0  0  0  0  0  0  0
    1.8155   67.8018   81.8257 C   0  0  0  0  0  0  0  0  0  0  0  0
    1.7196   68.5125   80.6352 C   0  0  0  0  0  0  0  0  0  0  0  0
    2.5365   69.6128   80.3616 C   0  0  0  0  0  0  0  0  0  0  0  0
    3.4803   70.0176   81.2945 C   0  0  0  0  0  0  0  0  0  0  0  0
    3.5938   69.3222   82.4963 C   0  0  0  0  0  0  0  0  0  0  0  0
    2.7554   68.2113   82.7782 C   0  0  0  0  0  0  0  0  0  0  0  0
    0.2332   64.9125   83.3707 C   0  0  0  0  0  0  0  0  0  0  0  0
   -0.5771   64.4100   82.3330 C   0  0  0  0  0  0  0  0  0  0  0  0
   -1.4171   63.3083   82.5268 C   0  0  0  0  0  0  0  0  0  0  0  0
   -1.4673   62.6807   83.7674 C   0  0  0  0  0  0  0  0  0  0  0  0
   -0.6787   63.1527   84.8122 C   0  0  0  0  0  0  0  0  0  0  0  0
    0.1603   64.2544   84.6142 C   0  0  0  0  0  0  0  0  0  0  0  0
    3.6857   67.8222   84.9966 N   0  0  0  0  0  0  0  0  0  0  0  0
    3.1464   68.1984   85.7698 H   0  0  0  0  0  0  0  0  0  0  0  0
    8.7552   67.1829   84.6043 Cl  0  0  0  0  0  0  0  0  0  0  0  0
    7.2299   66.7494   85.2754 C   0  0  0  0  0  0  0  0  0  0  0  0
    7.1499   65.6963   86.1812 C   0  0  0  0  0  0  0  0  0  0  0  0
    5.9106   65.3387   86.7047 C   0  0  0  0  0  0  0  0  0  0  0  0
    4.7629   66.0438   86.3284 C   0  0  0  0  0  0  0  0  0  0  0  0
    4.8338   67.1307   85.4463 C   0  0  0  0  0  0  0  0  0  0  0  0
    6.0843   67.4542   84.8991 C   0  0  0  0  0  0  0  0  0  0  0  0
 19 20  1  0  0  0
 20 21  1  0  0  0
 21 22  2  0  0  0
 22 23  1  0  0  0
 23 24  2  0  0  0
 24 17  1  0  0  0
 17  1  1  0  0  0
  1  2  1  0  0  0
  2  3  2  0  0  0
  3 11  1  0  0  0
 11 12  2  0  0  0
 12 13  1  0  0  0
 13 14  2  0  0  0
 14 15  1  0  0  0
 15 16  2  0  0  0
  3  4  1  0  0  0
  4  5  2  0  0  0
  5  6  1  0  0  0
  6  7  2  0  0  0
  7  8  1  0  0  0
  8  9  2  0  0  0
  9 10  1  0  0  0
 24 25  1  0  0  0
 25 20  2  0  0  0
 10  1  2  0  0  0
 16 11  1  0  0  0
 10  5  1  0  0  0
 17 18  1  0  0  0
M  END
> <minimizedAffinity>
-9.96376

$$$$
