


 38 41  0  0  0  0  0  0  0  0999 V2000
    2.7307   68.8539   82.3823 C   0  0  0  0  0  0  0  0  0  0  0  0
    3.9038   68.9724   83.0978 C   0  0  0  0  0  0  0  0  0  0  0  0
    4.3188   68.0393   83.9866 N   0  0  0  0  0  0  0  0  0  0  0  0
    3.5223   66.9594   84.1831 C   0  0  0  0  0  0  0  0  0  0  0  0
    2.3130   66.7576   83.5084 C   0  0  0  0  0  0  0  0  0  0  0  0
    1.9150   67.7447   82.5935 C   0  0  0  0  0  0  0  0  0  0  0  0
    1.4227   65.5643   83.6857 C   0  0  0  0  0  0  0  0  0  0  0  0
    0.9269   64.9853   82.6265 N   0  0  0  0  0  0  0  0  0  0  0  0
    0.1080   63.8903   82.9008 C   0  0  0  0  0  0  0  0  0  0  0  0
   -0.5616   63.0909   82.0134 C   0  0  0  0  0  0  0  0  0  0  0  0
   -1.2151   62.1778   82.8128 N   0  0  0  0  0  0  0  0  0  0  0  0
   -2.0741   61.0981   82.3834 C   0  0  0  0  0  0  0  0  0  0  0  0
   -0.9893   62.3465   84.1384 N   0  0  0  0  0  0  0  0  0  0  0  0
   -0.1771   63.4116   84.1829 C   0  0  0  0  0  0  0  0  0  0  0  0
    0.3898   64.0611   85.3426 C   0  0  0  0  0  0  0  0  0  0  0  0
    0.2324   63.7327   86.5147 O   0  0  0  0  0  0  0  0  0  0  0  0
    1.1743   65.1433   84.9883 N   0  0  0  0  0  0  0  0  0  0  0  0
    1.6001   65.6206   85.7729 H   0  0  0  0  0  0  0  0  0  0  0  0
   -0.6309   63.1232   80.5273 C   0  0  0  0  0  0  0  0  0  0  0  0
    0.3321   62.1279   79.8987 C   0  0  0  0  0  0  0  0  0  0  0  0
    2.2820   70.1375   81.2662 S   0  0  0  0  0  0  0  0  0  0  0  0
    1.1766   69.6370   80.4781 O   0  0  0  0  0  0  0  0  0  0  0  0
    3.4867   70.6233   80.6314 O   0  0  0  0  0  0  0  0  0  0  0  0
    1.3986   74.0884   81.2744 N   0  0  0  0  0  0  0  0  0  0  0  0
    2.7242   73.5563   81.6336 C   0  0  0  0  0  0  0  0  0  0  0  0
    2.6373   72.4398   82.6969 C   0  0  0  0  0  0  0  0  0  0  0  0
    1.6926   71.3426   82.3091 N   0  0  0  0  0  0  0  0  0  0  0  0
    0.3656   71.9196   81.9187 C   0  0  0  0  0  0  0  0  0  0  0  0
    0.5082   73.0010   80.8315 C   0  0  0  0  0  0  0  0  0  0  0  0
    1.4602   75.2095   80.3280 C   0  0  0  0  0  0  0  0  0  0  0  0
    0.7622   77.2527   81.6294 C   0  0  0  0  0  0  0  0  0  0  0  0
    1.9018   76.5701   80.8847 C   0  0  0  0  0  0  0  0  0  0  0  0
    3.9522   65.9964   85.0729 O   0  0  0  0  0  0  0  0  0  0  0  0
    5.2154   66.2524   85.7140 C   0  0  0  0  0  0  0  0  0  0  0  0
    5.0867   65.7055   87.1374 C   0  0  0  0  0  0  0  0  0  0  0  0
    6.3557   65.5472   84.9628 C   0  0  0  0  0  0  0  0  0  0  0  0
    7.6141   65.8758   85.5529 O   0  0  0  0  0  0  0  0  0  0  0  0
    8.3288   66.8230   84.7703 C   0  0  0  0  0  0  0  0  0  0  0  0
 31 32  1  0  0  0
 32 30  1  0  0  0
 30 24  1  0  0  0
 24 25  1  0  0  0
 25 26  1  0  0  0
 26 27  1  0  0  0
 27 21  1  0  0  0
 21 22  2  0  0  0
 21 23  2  0  0  0
 21  1  1  0  0  0
  1  2  1  0  0  0
  2  3  2  0  0  0
  3  4  1  0  0  0
  4 33  1  0  0  0
 33 34  1  0  0  0
 34 35  1  0  0  0
 34 36  1  0  0  0
 36 37  1  0  0  0
 37 38  1  0  0  0
  4  5  2  0  0  0
  5  7  1  0  0  0
  7  8  2  0  0  0
  8  9  1  0  0  0
  9 10  2  0  0  0
 10 19  1  0  0  0
 19 20  1  0  0  0
 10 11  1  0  0  0
 11 12  1  0  0  0
 11 13  1  0  0  0
 13 14  2  0  0  0
 14 15  1  0  0  0
 15 16  2  0  0  0
 15 17  1  0  0  0
  5  6  1  0  0  0
 27 28  1  0  0  0
 28 29  1  0  0  0
 29 24  1  0  0  0
  6  1  2  0  0  0
 17  7  1  0  0  0
 14  9  1  0  0  0
 17 18  1  0  0  0
M  END
> <minimizedAffinity>
-1.93870

$$$$



 38 41  0  0  0  0  0  0  0  0999 V2000
    0.8916   66.7979   81.6543 C   0  0  0  0  0  0  0  0  0  0  0  0
    1.3523   66.6538   82.9462 C   0  0  0  0  0  0  0  0  0  0  0  0
    1.1486   65.5325   83.6772 N   0  0  0  0  0  0  0  0  0  0  0  0
    0.4410   64.5277   83.1040 C   0  0  0  0  0  0  0  0  0  0  0  0
   -0.0707   64.5868   81.8027 C   0  0  0  0  0  0  0  0  0  0  0  0
    0.1607   65.7637   81.0741 C   0  0  0  0  0  0  0  0  0  0  0  0
   -0.8357   63.4850   81.1330 C   0  0  0  0  0  0  0  0  0  0  0  0
   -0.6984   63.3145   79.8465 N   0  0  0  0  0  0  0  0  0  0  0  0
   -1.4569   62.2686   79.3215 C   0  0  0  0  0  0  0  0  0  0  0  0
   -1.5376   61.8520   78.0196 C   0  0  0  0  0  0  0  0  0  0  0  0
   -2.4256   60.7986   78.0598 N   0  0  0  0  0  0  0  0  0  0  0  0
   -2.8737   59.9911   76.9484 C   0  0  0  0  0  0  0  0  0  0  0  0
   -2.8957   60.5226   79.3005 N   0  0  0  0  0  0  0  0  0  0  0  0
   -2.2976   61.4410   80.0717 C   0  0  0  0  0  0  0  0  0  0  0  0
   -2.4282   61.6402   81.4970 C   0  0  0  0  0  0  0  0  0  0  0  0
   -3.1159   60.9774   82.2680 O   0  0  0  0  0  0  0  0  0  0  0  0
   -1.6591   62.7021   81.9361 N   0  0  0  0  0  0  0  0  0  0  0  0
   -1.7139   62.8687   82.9330 H   0  0  0  0  0  0  0  0  0  0  0  0
   -0.8686   62.3538   76.7888 C   0  0  0  0  0  0  0  0  0  0  0  0
   -1.3596   63.7423   76.4094 C   0  0  0  0  0  0  0  0  0  0  0  0
    1.1999   68.3073   80.8050 S   0  0  0  0  0  0  0  0  0  0  0  0
   -0.0904   68.8534   80.4439 O   0  0  0  0  0  0  0  0  0  0  0  0
    2.2092   68.0599   79.7997 O   0  0  0  0  0  0  0  0  0  0  0  0
    2.6828   72.0361   81.3409 N   0  0  0  0  0  0  0  0  0  0  0  0
    3.5129   70.8859   80.9442 C   0  0  0  0  0  0  0  0  0  0  0  0
    3.3128   69.6714   81.8768 C   0  0  0  0  0  0  0  0  0  0  0  0
    1.8721   69.2838   82.0222 N   0  0  0  0  0  0  0  0  0  0  0  0
    1.0516   70.4816   82.3938 C   0  0  0  0  0  0  0  0  0  0  0  0
    1.2628   71.6485   81.4111 C   0  0  0  0  0  0  0  0  0  0  0  0
    2.9178   73.2316   80.5212 C   0  0  0  0  0  0  0  0  0  0  0  0
    3.4318   75.6941   80.6864 C   0  0  0  0  0  0  0  0  0  0  0  0
    2.4850   74.5803   81.1130 C   0  0  0  0  0  0  0  0  0  0  0  0
    0.2493   63.3754   83.8385 O   0  0  0  0  0  0  0  0  0  0  0  0
   -0.5044   63.5245   85.0558 C   0  0  0  0  0  0  0  0  0  0  0  0
   -1.3236   62.2407   85.2069 C   0  0  0  0  0  0  0  0  0  0  0  0
    0.4376   63.7113   86.2556 C   0  0  0  0  0  0  0  0  0  0  0  0
   -0.3138   63.7796   87.4683 O   0  0  0  0  0  0  0  0  0  0  0  0
    0.2618   62.9734   88.4878 C   0  0  0  0  0  0  0  0  0  0  0  0
 31 32  1  0  0  0
 32 30  1  0  0  0
 30 24  1  0  0  0
 24 25  1  0  0  0
 25 26  1  0  0  0
 26 27  1  0  0  0
 27 21  1  0  0  0
 21 22  2  0  0  0
 21 23  2  0  0  0
 21  1  1  0  0  0
  1  2  1  0  0  0
  2  3  2  0  0  0
  3  4  1  0  0  0
  4 33  1  0  0  0
 33 34  1  0  0  0
 34 35  1  0  0  0
 34 36  1  0  0  0
 36 37  1  0  0  0
 37 38  1  0  0  0
  4  5  2  0  0  0
  5  7  1  0  0  0
  7  8  2  0  0  0
  8  9  1  0  0  0
  9 10  2  0  0  0
 10 19  1  0  0  0
 19 20  1  0  0  0
 10 11  1  0  0  0
 11 12  1  0  0  0
 11 13  1  0  0  0
 13 14  2  0  0  0
 14 15  1  0  0  0
 15 16  2  0  0  0
 15 17  1  0  0  0
  5  6  1  0  0  0
 27 28  1  0  0  0
 28 29  1  0  0  0
 29 24  1  0  0  0
  6  1  2  0  0  0
 17  7  1  0  0  0
 14  9  1  0  0  0
 17 18  1  0  0  0
M  END
> <minimizedAffinity>
-1.91891

$$$$



 38 41  0  0  0  0  0  0  0  0999 V2000
    1.0920   67.5847   81.3760 C   0  0  0  0  0  0  0  0  0  0  0  0
    1.5185   67.3182   82.6603 C   0  0  0  0  0  0  0  0  0  0  0  0
    1.3957   66.0990   83.2362 N   0  0  0  0  0  0  0  0  0  0  0  0
    0.8062   65.1169   82.5103 C   0  0  0  0  0  0  0  0  0  0  0  0
    0.3373   65.2960   81.2039 C   0  0  0  0  0  0  0  0  0  0  0  0
    0.4825   66.5723   80.6386 C   0  0  0  0  0  0  0  0  0  0  0  0
   -0.2965   64.2253   80.3677 C   0  0  0  0  0  0  0  0  0  0  0  0
   -1.1900   63.4461   80.9131 N   0  0  0  0  0  0  0  0  0  0  0  0
   -1.7126   62.4810   80.0528 C   0  0  0  0  0  0  0  0  0  0  0  0
   -2.6475   61.5190   80.3278 C   0  0  0  0  0  0  0  0  0  0  0  0
   -2.7905   60.8411   79.1361 N   0  0  0  0  0  0  0  0  0  0  0  0
   -3.6605   59.7188   78.8688 C   0  0  0  0  0  0  0  0  0  0  0  0
   -2.0165   61.3224   78.1333 N   0  0  0  0  0  0  0  0  0  0  0  0
   -1.3486   62.3302   78.7115 C   0  0  0  0  0  0  0  0  0  0  0  0
   -0.3641   63.2096   78.1236 C   0  0  0  0  0  0  0  0  0  0  0  0
    0.0294   63.1936   76.9611 O   0  0  0  0  0  0  0  0  0  0  0  0
    0.1151   64.1252   79.0423 N   0  0  0  0  0  0  0  0  0  0  0  0
    0.8004   64.7686   78.6669 H   0  0  0  0  0  0  0  0  0  0  0  0
   -3.3852   61.2018   81.5805 C   0  0  0  0  0  0  0  0  0  0  0  0
   -2.7477   60.0415   82.3290 C   0  0  0  0  0  0  0  0  0  0  0  0
    1.2867   69.2117   80.7359 S   0  0  0  0  0  0  0  0  0  0  0  0
   -0.0314   69.8077   80.7048 O   0  0  0  0  0  0  0  0  0  0  0  0
    2.0935   69.1307   79.5389 O   0  0  0  0  0  0  0  0  0  0  0  0
    3.1251   72.7388   81.4905 N   0  0  0  0  0  0  0  0  0  0  0  0
    3.7989   71.5980   80.8471 C   0  0  0  0  0  0  0  0  0  0  0  0
    3.6271   70.2895   81.6491 C   0  0  0  0  0  0  0  0  0  0  0  0
    2.1921   69.9796   81.9515 N   0  0  0  0  0  0  0  0  0  0  0  0
    1.5282   71.1700   82.5745 C   0  0  0  0  0  0  0  0  0  0  0  0
    1.7005   72.4370   81.7160 C   0  0  0  0  0  0  0  0  0  0  0  0
    3.3449   74.0117   80.7923 C   0  0  0  0  0  0  0  0  0  0  0  0
    4.8427   75.8785   81.5844 C   0  0  0  0  0  0  0  0  0  0  0  0
    4.7728   74.5751   80.7999 C   0  0  0  0  0  0  0  0  0  0  0  0
    0.6981   63.8677   83.0865 O   0  0  0  0  0  0  0  0  0  0  0  0
   -0.1916   63.7708   84.2140 C   0  0  0  0  0  0  0  0  0  0  0  0
   -0.7925   62.3644   84.1599 C   0  0  0  0  0  0  0  0  0  0  0  0
    0.5762   63.9826   85.5283 C   0  0  0  0  0  0  0  0  0  0  0  0
   -0.3292   63.9985   86.6328 O   0  0  0  0  0  0  0  0  0  0  0  0
    0.1515   63.2136   87.7160 C   0  0  0  0  0  0  0  0  0  0  0  0
 31 32  1  0  0  0
 32 30  1  0  0  0
 30 24  1  0  0  0
 24 25  1  0  0  0
 25 26  1  0  0  0
 26 27  1  0  0  0
 27 21  1  0  0  0
 21 22  2  0  0  0
 21 23  2  0  0  0
 21  1  1  0  0  0
  1  2  1  0  0  0
  2  3  2  0  0  0
  3  4  1  0  0  0
  4 33  1  0  0  0
 33 34  1  0  0  0
 34 35  1  0  0  0
 34 36  1  0  0  0
 36 37  1  0  0  0
 37 38  1  0  0  0
  4  5  2  0  0  0
  5  7  1  0  0  0
  7  8  2  0  0  0
  8  9  1  0  0  0
  9 10  2  0  0  0
 10 19  1  0  0  0
 19 20  1  0  0  0
 10 11  1  0  0  0
 11 12  1  0  0  0
 11 13  1  0  0  0
 13 14  2  0  0  0
 14 15  1  0  0  0
 15 16  2  0  0  0
 15 17  1  0  0  0
  5  6  1  0  0  0
 27 28  1  0  0  0
 28 29  1  0  0  0
 29 24  1  0  0  0
  6  1  2  0  0  0
 17  7  1  0  0  0
 14  9  1  0  0  0
 17 18  1  0  0  0
M  END
> <minimizedAffinity>
-1.82980

$$$$



 38 41  0  0  0  0  0  0  0  0999 V2000
    2.6185   69.1135   82.2417 C   0  0  0  0  0  0  0  0  0  0  0  0
    3.8241   69.2589   82.8955 C   0  0  0  0  0  0  0  0  0  0  0  0
    4.2959   68.3455   83.7766 N   0  0  0  0  0  0  0  0  0  0  0  0
    3.5254   67.2585   84.0291 C   0  0  0  0  0  0  0  0  0  0  0  0
    2.2868   67.0301   83.4190 C   0  0  0  0  0  0  0  0  0  0  0  0
    1.8300   67.9972   82.5103 C   0  0  0  0  0  0  0  0  0  0  0  0
    1.4233   65.8282   83.6588 C   0  0  0  0  0  0  0  0  0  0  0  0
    1.0861   65.5290   84.8835 N   0  0  0  0  0  0  0  0  0  0  0  0
    0.2881   64.3910   84.9979 C   0  0  0  0  0  0  0  0  0  0  0  0
   -0.2131   63.8198   86.1369 C   0  0  0  0  0  0  0  0  0  0  0  0
   -0.9185   62.7270   85.6806 N   0  0  0  0  0  0  0  0  0  0  0  0
   -1.6513   61.7671   86.4741 C   0  0  0  0  0  0  0  0  0  0  0  0
   -0.9007   62.5845   84.3331 N   0  0  0  0  0  0  0  0  0  0  0  0
   -0.1463   63.6126   83.9210 C   0  0  0  0  0  0  0  0  0  0  0  0
    0.2301   63.9665   82.5715 C   0  0  0  0  0  0  0  0  0  0  0  0
   -0.0957   63.3799   81.5438 O   0  0  0  0  0  0  0  0  0  0  0  0
    1.0309   65.0934   82.5444 N   0  0  0  0  0  0  0  0  0  0  0  0
    1.3083   65.3821   81.6147 H   0  0  0  0  0  0  0  0  0  0  0  0
   -0.0805   64.2098   87.5668 C   0  0  0  0  0  0  0  0  0  0  0  0
    0.9244   63.3324   88.2971 C   0  0  0  0  0  0  0  0  0  0  0  0
    2.0969   70.3733   81.1301 S   0  0  0  0  0  0  0  0  0  0  0  0
    0.7099   70.1049   80.8174 O   0  0  0  0  0  0  0  0  0  0  0  0
    3.0861   70.4862   80.0817 O   0  0  0  0  0  0  0  0  0  0  0  0
    1.7335   74.3938   80.8240 N   0  0  0  0  0  0  0  0  0  0  0  0
    3.0153   73.6845   80.6713 C   0  0  0  0  0  0  0  0  0  0  0  0
    3.2952   72.7234   81.8473 C   0  0  0  0  0  0  0  0  0  0  0  0
    2.1666   71.7690   82.0966 N   0  0  0  0  0  0  0  0  0  0  0  0
    0.8744   72.5189   82.2143 C   0  0  0  0  0  0  0  0  0  0  0  0
    0.6296   73.4335   80.9996 C   0  0  0  0  0  0  0  0  0  0  0  0
    1.4838   75.3766   79.7619 C   0  0  0  0  0  0  0  0  0  0  0  0
    1.2643   77.0895   81.5985 C   0  0  0  0  0  0  0  0  0  0  0  0
    0.8555   76.7130   80.1807 C   0  0  0  0  0  0  0  0  0  0  0  0
    4.0125   66.3155   84.9108 O   0  0  0  0  0  0  0  0  0  0  0  0
    5.2904   66.6110   85.5041 C   0  0  0  0  0  0  0  0  0  0  0  0
    5.2289   66.0699   86.9342 C   0  0  0  0  0  0  0  0  0  0  0  0
    6.4222   65.9333   84.7157 C   0  0  0  0  0  0  0  0  0  0  0  0
    7.6544   66.0388   85.4302 O   0  0  0  0  0  0  0  0  0  0  0  0
    8.5615   66.9215   84.7832 C   0  0  0  0  0  0  0  0  0  0  0  0
 31 32  1  0  0  0
 32 30  1  0  0  0
 30 24  1  0  0  0
 24 25  1  0  0  0
 25 26  1  0  0  0
 26 27  1  0  0  0
 27 21  1  0  0  0
 21 22  2  0  0  0
 21 23  2  0  0  0
 21  1  1  0  0  0
  1  2  1  0  0  0
  2  3  2  0  0  0
  3  4  1  0  0  0
  4 33  1  0  0  0
 33 34  1  0  0  0
 34 35  1  0  0  0
 34 36  1  0  0  0
 36 37  1  0  0  0
 37 38  1  0  0  0
  4  5  2  0  0  0
  5  7  1  0  0  0
  7  8  2  0  0  0
  8  9  1  0  0  0
  9 10  2  0  0  0
 10 19  1  0  0  0
 19 20  1  0  0  0
 10 11  1  0  0  0
 11 12  1  0  0  0
 11 13  1  0  0  0
 13 14  2  0  0  0
 14 15  1  0  0  0
 15 16  2  0  0  0
 15 17  1  0  0  0
  5  6  1  0  0  0
 27 28  1  0  0  0
 28 29  1  0  0  0
 29 24  1  0  0  0
  6  1  2  0  0  0
 17  7  1  0  0  0
 14  9  1  0  0  0
 17 18  1  0  0  0
M  END
> <minimizedAffinity>
-1.65911

$$$$



 38 41  0  0  0  0  0  0  0  0999 V2000
    0.8993   66.7475   81.3945 C   0  0  0  0  0  0  0  0  0  0  0  0
    1.5789   66.0546   82.3743 C   0  0  0  0  0  0  0  0  0  0  0  0
    2.5482   66.6180   83.1335 N   0  0  0  0  0  0  0  0  0  0  0  0
    2.8640   67.9142   82.8902 C   0  0  0  0  0  0  0  0  0  0  0  0
    2.2337   68.6935   81.9136 C   0  0  0  0  0  0  0  0  0  0  0  0
    1.2331   68.0770   81.1466 C   0  0  0  0  0  0  0  0  0  0  0  0
    2.5434   70.1341   81.6368 C   0  0  0  0  0  0  0  0  0  0  0  0
    3.6581   70.4331   81.0278 N   0  0  0  0  0  0  0  0  0  0  0  0
    3.8531   71.7989   80.8245 C   0  0  0  0  0  0  0  0  0  0  0  0
    4.9180   72.4228   80.2314 C   0  0  0  0  0  0  0  0  0  0  0  0
    4.6014   73.7626   80.2998 N   0  0  0  0  0  0  0  0  0  0  0  0
    5.3904   74.8723   79.8161 C   0  0  0  0  0  0  0  0  0  0  0  0
    3.4058   74.0159   80.8852 N   0  0  0  0  0  0  0  0  0  0  0  0
    2.9549   72.7972   81.2129 C   0  0  0  0  0  0  0  0  0  0  0  0
    1.7212   72.4445   81.8776 C   0  0  0  0  0  0  0  0  0  0  0  0
    0.8458   73.2185   82.2533 O   0  0  0  0  0  0  0  0  0  0  0  0
    1.6103   71.0777   82.0551 N   0  0  0  0  0  0  0  0  0  0  0  0
    0.7531   70.7871   82.5083 H   0  0  0  0  0  0  0  0  0  0  0  0
    6.1634   71.8729   79.6308 C   0  0  0  0  0  0  0  0  0  0  0  0
    6.0622   71.7786   78.1162 C   0  0  0  0  0  0  0  0  0  0  0  0
   -0.3300   65.9083   80.4568 S   0  0  0  0  0  0  0  0  0  0  0  0
   -0.7944   66.8389   79.4510 O   0  0  0  0  0  0  0  0  0  0  0  0
   -1.2551   65.2892   81.3795 O   0  0  0  0  0  0  0  0  0  0  0  0
   -0.8737   62.6857   78.0675 N   0  0  0  0  0  0  0  0  0  0  0  0
   -0.8769   62.6104   79.5384 C   0  0  0  0  0  0  0  0  0  0  0  0
    0.3670   63.2815   80.1607 C   0  0  0  0  0  0  0  0  0  0  0  0
    0.5656   64.6886   79.6839 N   0  0  0  0  0  0  0  0  0  0  0  0
    0.5310   64.7347   78.1863 C   0  0  0  0  0  0  0  0  0  0  0  0
   -0.7460   64.0845   77.6221 C   0  0  0  0  0  0  0  0  0  0  0  0
   -2.0029   61.9805   77.4478 C   0  0  0  0  0  0  0  0  0  0  0  0
   -3.3759   60.1189   78.4501 C   0  0  0  0  0  0  0  0  0  0  0  0
   -2.1016   60.4684   77.6931 C   0  0  0  0  0  0  0  0  0  0  0  0
    3.8369   68.4975   83.6759 O   0  0  0  0  0  0  0  0  0  0  0  0
    4.6675   67.5907   84.4241 C   0  0  0  0  0  0  0  0  0  0  0  0
    6.0991   67.8289   83.9386 C   0  0  0  0  0  0  0  0  0  0  0  0
    4.5521   67.8699   85.9309 C   0  0  0  0  0  0  0  0  0  0  0  0
    5.4769   67.0585   86.6564 O   0  0  0  0  0  0  0  0  0  0  0  0
    5.0850   65.6922   86.6601 C   0  0  0  0  0  0  0  0  0  0  0  0
 31 32  1  0  0  0
 32 30  1  0  0  0
 30 24  1  0  0  0
 24 25  1  0  0  0
 25 26  1  0  0  0
 26 27  1  0  0  0
 27 21  1  0  0  0
 21 22  2  0  0  0
 21 23  2  0  0  0
 21  1  1  0  0  0
  1  2  1  0  0  0
  2  3  2  0  0  0
  3  4  1  0  0  0
  4 33  1  0  0  0
 33 34  1  0  0  0
 34 35  1  0  0  0
 34 36  1  0  0  0
 36 37  1  0  0  0
 37 38  1  0  0  0
  4  5  2  0  0  0
  5  7  1  0  0  0
  7  8  2  0  0  0
  8  9  1  0  0  0
  9 10  2  0  0  0
 10 19  1  0  0  0
 19 20  1  0  0  0
 10 11  1  0  0  0
 11 12  1  0  0  0
 11 13  1  0  0  0
 13 14  2  0  0  0
 14 15  1  0  0  0
 15 16  2  0  0  0
 15 17  1  0  0  0
  5  6  1  0  0  0
 27 28  1  0  0  0
 28 29  1  0  0  0
 29 24  1  0  0  0
  6  1  2  0  0  0
 17  7  1  0  0  0
 14  9  1  0  0  0
 17 18  1  0  0  0
M  END
> <minimizedAffinity>
-1.58840

$$$$



 38 41  0  0  0  0  0  0  0  0999 V2000
    2.0700   71.3930   81.2836 C   0  0  0  0  0  0  0  0  0  0  0  0
    0.7548   71.7991   81.1960 C   0  0  0  0  0  0  0  0  0  0  0  0
    0.3736   73.0895   81.3465 N   0  0  0  0  0  0  0  0  0  0  0  0
    1.3388   74.0033   81.6153 C   0  0  0  0  0  0  0  0  0  0  0  0
    2.6965   73.6835   81.7287 C   0  0  0  0  0  0  0  0  0  0  0  0
    3.0551   72.3365   81.5655 C   0  0  0  0  0  0  0  0  0  0  0  0
    3.7891   74.6733   82.0012 C   0  0  0  0  0  0  0  0  0  0  0  0
    4.7292   74.8350   81.1106 N   0  0  0  0  0  0  0  0  0  0  0  0
    5.6993   75.7727   81.4633 C   0  0  0  0  0  0  0  0  0  0  0  0
    6.8070   76.1524   80.7535 C   0  0  0  0  0  0  0  0  0  0  0  0
    7.4140   77.0925   81.5582 N   0  0  0  0  0  0  0  0  0  0  0  0
    8.6325   77.8198   81.2854 C   0  0  0  0  0  0  0  0  0  0  0  0
    6.7537   77.3334   82.7168 N   0  0  0  0  0  0  0  0  0  0  0  0
    5.7002   76.5076   82.6525 C   0  0  0  0  0  0  0  0  0  0  0  0
    4.6447   76.3208   83.6216 C   0  0  0  0  0  0  0  0  0  0  0  0
    4.5207   76.9109   84.6907 O   0  0  0  0  0  0  0  0  0  0  0  0
    3.7340   75.3669   83.2061 N   0  0  0  0  0  0  0  0  0  0  0  0
    2.9708   75.2135   83.8531 H   0  0  0  0  0  0  0  0  0  0  0  0
    7.3174   75.7113   79.4271 C   0  0  0  0  0  0  0  0  0  0  0  0
    6.5078   76.3092   78.2869 C   0  0  0  0  0  0  0  0  0  0  0  0
    2.4476   69.6860   81.0881 S   0  0  0  0  0  0  0  0  0  0  0  0
    3.5761   69.4076   81.9498 O   0  0  0  0  0  0  0  0  0  0  0  0
    2.5050   69.3971   79.6726 O   0  0  0  0  0  0  0  0  0  0  0  0
    0.4245   66.1858   80.8751 N   0  0  0  0  0  0  0  0  0  0  0  0
    0.1363   67.3396   80.0061 C   0  0  0  0  0  0  0  0  0  0  0  0
   -0.0638   68.6421   80.8113 C   0  0  0  0  0  0  0  0  0  0  0  0
    1.0751   68.9280   81.7429 N   0  0  0  0  0  0  0  0  0  0  0  0
    1.3632   67.7248   82.5887 C   0  0  0  0  0  0  0  0  0  0  0  0
    1.5894   66.4639   81.7337 C   0  0  0  0  0  0  0  0  0  0  0  0
    0.5347   64.9191   80.1405 C   0  0  0  0  0  0  0  0  0  0  0  0
   -0.5261   62.8127   79.2500 C   0  0  0  0  0  0  0  0  0  0  0  0
   -0.6245   63.9236   80.2869 C   0  0  0  0  0  0  0  0  0  0  0  0
    0.9564   75.3225   81.7487 O   0  0  0  0  0  0  0  0  0  0  0  0
   -0.2668   75.6922   81.0859 C   0  0  0  0  0  0  0  0  0  0  0  0
   -0.9113   76.7723   81.9576 C   0  0  0  0  0  0  0  0  0  0  0  0
    0.0238   76.2336   79.6773 C   0  0  0  0  0  0  0  0  0  0  0  0
   -1.1980   76.5284   78.9991 O   0  0  0  0  0  0  0  0  0  0  0  0
   -1.8679   75.3442   78.5873 C   0  0  0  0  0  0  0  0  0  0  0  0
 31 32  1  0  0  0
 32 30  1  0  0  0
 30 24  1  0  0  0
 24 25  1  0  0  0
 25 26  1  0  0  0
 26 27  1  0  0  0
 27 21  1  0  0  0
 21 22  2  0  0  0
 21 23  2  0  0  0
 21  1  1  0  0  0
  1  2  1  0  0  0
  2  3  2  0  0  0
  3  4  1  0  0  0
  4 33  1  0  0  0
 33 34  1  0  0  0
 34 35  1  0  0  0
 34 36  1  0  0  0
 36 37  1  0  0  0
 37 38  1  0  0  0
  4  5  2  0  0  0
  5  7  1  0  0  0
  7  8  2  0  0  0
  8  9  1  0  0  0
  9 10  2  0  0  0
 10 19  1  0  0  0
 19 20  1  0  0  0
 10 11  1  0  0  0
 11 12  1  0  0  0
 11 13  1  0  0  0
 13 14  2  0  0  0
 14 15  1  0  0  0
 15 16  2  0  0  0
 15 17  1  0  0  0
  5  6  1  0  0  0
 27 28  1  0  0  0
 28 29  1  0  0  0
 29 24  1  0  0  0
  6  1  2  0  0  0
 17  7  1  0  0  0
 14  9  1  0  0  0
 17 18  1  0  0  0
M  END
> <minimizedAffinity>
-1.58511

$$$$



 38 41  0  0  0  0  0  0  0  0999 V2000
    2.7560   71.8330   81.3446 C   0  0  0  0  0  0  0  0  0  0  0  0
    1.5441   72.3497   81.7526 C   0  0  0  0  0  0  0  0  0  0  0  0
    1.3465   73.6708   81.9733 N   0  0  0  0  0  0  0  0  0  0  0  0
    2.4036   74.5025   81.8007 C   0  0  0  0  0  0  0  0  0  0  0  0
    3.6709   74.0685   81.3957 C   0  0  0  0  0  0  0  0  0  0  0  0
    3.8387   72.6927   81.1748 C   0  0  0  0  0  0  0  0  0  0  0  0
    4.8520   74.9648   81.1733 C   0  0  0  0  0  0  0  0  0  0  0  0
    5.2791   75.1536   79.9547 N   0  0  0  0  0  0  0  0  0  0  0  0
    6.3848   75.9978   79.8579 C   0  0  0  0  0  0  0  0  0  0  0  0
    7.0640   76.3771   78.7310 C   0  0  0  0  0  0  0  0  0  0  0  0
    8.0613   77.2029   79.2036 N   0  0  0  0  0  0  0  0  0  0  0  0
    9.0743   77.8812   78.4278 C   0  0  0  0  0  0  0  0  0  0  0  0
    8.0432   77.3736   80.5478 N   0  0  0  0  0  0  0  0  0  0  0  0
    7.0089   76.6190   80.9437 C   0  0  0  0  0  0  0  0  0  0  0  0
    6.5146   76.4046   82.2845 C   0  0  0  0  0  0  0  0  0  0  0  0
    6.9592   76.9000   83.3158 O   0  0  0  0  0  0  0  0  0  0  0  0
    5.4302   75.5466   82.2972 N   0  0  0  0  0  0  0  0  0  0  0  0
    5.0460   75.3784   83.2184 H   0  0  0  0  0  0  0  0  0  0  0  0
    6.8534   76.0313   77.2992 C   0  0  0  0  0  0  0  0  0  0  0  0
    7.3600   74.6335   76.9787 C   0  0  0  0  0  0  0  0  0  0  0  0
    2.9025   70.0964   81.1049 S   0  0  0  0  0  0  0  0  0  0  0  0
    4.0269   69.6589   81.9036 O   0  0  0  0  0  0  0  0  0  0  0  0
    2.8534   69.8326   79.6842 O   0  0  0  0  0  0  0  0  0  0  0  0
    0.6152   66.7570   81.1849 N   0  0  0  0  0  0  0  0  0  0  0  0
    0.4137   67.8513   80.2198 C   0  0  0  0  0  0  0  0  0  0  0  0
    0.3173   69.2292   80.9104 C   0  0  0  0  0  0  0  0  0  0  0  0
    1.4780   69.5050   81.8177 N   0  0  0  0  0  0  0  0  0  0  0  0
    1.6757   68.3596   82.7639 C   0  0  0  0  0  0  0  0  0  0  0  0
    1.8011   67.0168   82.0202 C   0  0  0  0  0  0  0  0  0  0  0  0
    0.6251   65.4276   80.5613 C   0  0  0  0  0  0  0  0  0  0  0  0
   -0.3801   63.8065   78.9129 C   0  0  0  0  0  0  0  0  0  0  0  0
   -0.1275   65.2739   79.2323 C   0  0  0  0  0  0  0  0  0  0  0  0
    2.2004   75.8520   82.0048 O   0  0  0  0  0  0  0  0  0  0  0  0
    0.8324   76.2966   81.9506 C   0  0  0  0  0  0  0  0  0  0  0  0
    0.6792   77.3331   83.0660 C   0  0  0  0  0  0  0  0  0  0  0  0
    0.5211   76.9224   80.5819 C   0  0  0  0  0  0  0  0  0  0  0  0
   -0.8111   76.5983   80.1815 O   0  0  0  0  0  0  0  0  0  0  0  0
   -1.2180   77.3575   79.0508 C   0  0  0  0  0  0  0  0  0  0  0  0
 31 32  1  0  0  0
 32 30  1  0  0  0
 30 24  1  0  0  0
 24 25  1  0  0  0
 25 26  1  0  0  0
 26 27  1  0  0  0
 27 21  1  0  0  0
 21 22  2  0  0  0
 21 23  2  0  0  0
 21  1  1  0  0  0
  1  2  1  0  0  0
  2  3  2  0  0  0
  3  4  1  0  0  0
  4 33  1  0  0  0
 33 34  1  0  0  0
 34 35  1  0  0  0
 34 36  1  0  0  0
 36 37  1  0  0  0
 37 38  1  0  0  0
  4  5  2  0  0  0
  5  7  1  0  0  0
  7  8  2  0  0  0
  8  9  1  0  0  0
  9 10  2  0  0  0
 10 19  1  0  0  0
 19 20  1  0  0  0
 10 11  1  0  0  0
 11 12  1  0  0  0
 11 13  1  0  0  0
 13 14  2  0  0  0
 14 15  1  0  0  0
 15 16  2  0  0  0
 15 17  1  0  0  0
  5  6  1  0  0  0
 27 28  1  0  0  0
 28 29  1  0  0  0
 29 24  1  0  0  0
  6  1  2  0  0  0
 17  7  1  0  0  0
 14  9  1  0  0  0
 17 18  1  0  0  0
M  END
> <minimizedAffinity>
-1.56618

$$$$



 38 41  0  0  0  0  0  0  0  0999 V2000
    2.6985   71.7568   81.2935 C   0  0  0  0  0  0  0  0  0  0  0  0
    1.4810   72.2644   81.6964 C   0  0  0  0  0  0  0  0  0  0  0  0
    1.2602   73.5884   81.8735 N   0  0  0  0  0  0  0  0  0  0  0  0
    2.2993   74.4334   81.6608 C   0  0  0  0  0  0  0  0  0  0  0  0
    3.5706   74.0097   81.2574 C   0  0  0  0  0  0  0  0  0  0  0  0
    3.7627   72.6305   81.0824 C   0  0  0  0  0  0  0  0  0  0  0  0
    4.7318   74.9199   80.9915 C   0  0  0  0  0  0  0  0  0  0  0  0
    5.3166   75.5062   82.0002 N   0  0  0  0  0  0  0  0  0  0  0  0
    6.3799   76.3355   81.6449 C   0  0  0  0  0  0  0  0  0  0  0  0
    7.1761   77.0894   82.4651 C   0  0  0  0  0  0  0  0  0  0  0  0
    8.0521   77.7114   81.6016 N   0  0  0  0  0  0  0  0  0  0  0  0
    9.1132   78.6300   81.9457 C   0  0  0  0  0  0  0  0  0  0  0  0
    7.8636   77.3877   80.2993 N   0  0  0  0  0  0  0  0  0  0  0  0
    6.8235   76.5434   80.3355 C   0  0  0  0  0  0  0  0  0  0  0  0
    6.1685   75.8771   79.2332 C   0  0  0  0  0  0  0  0  0  0  0  0
    6.4681   75.9609   78.0459 O   0  0  0  0  0  0  0  0  0  0  0  0
    5.1185   75.0881   79.6656 N   0  0  0  0  0  0  0  0  0  0  0  0
    4.6388   74.5940   78.9237 H   0  0  0  0  0  0  0  0  0  0  0  0
    7.1718   77.2625   83.9430 C   0  0  0  0  0  0  0  0  0  0  0  0
    6.0050   78.1221   84.4042 C   0  0  0  0  0  0  0  0  0  0  0  0
    2.8761   70.0160   81.1124 S   0  0  0  0  0  0  0  0  0  0  0  0
    3.9934   69.6225   81.9432 O   0  0  0  0  0  0  0  0  0  0  0  0
    2.8553   69.7061   79.7003 O   0  0  0  0  0  0  0  0  0  0  0  0
    0.6044   66.6665   81.2087 N   0  0  0  0  0  0  0  0  0  0  0  0
    0.4050   67.7500   80.2312 C   0  0  0  0  0  0  0  0  0  0  0  0
    0.2966   69.1343   80.9070 C   0  0  0  0  0  0  0  0  0  0  0  0
    1.4491   69.4248   81.8203 N   0  0  0  0  0  0  0  0  0  0  0  0
    1.6450   68.2901   82.7794 C   0  0  0  0  0  0  0  0  0  0  0  0
    1.7825   66.9404   82.0503 C   0  0  0  0  0  0  0  0  0  0  0  0
    0.6253   65.3309   80.5987 C   0  0  0  0  0  0  0  0  0  0  0  0
   -0.5004   63.7453   78.9944 C   0  0  0  0  0  0  0  0  0  0  0  0
   -0.0441   65.1796   79.2256 C   0  0  0  0  0  0  0  0  0  0  0  0
    2.0722   75.7851   81.8203 O   0  0  0  0  0  0  0  0  0  0  0  0
    0.6930   76.1812   81.9346 C   0  0  0  0  0  0  0  0  0  0  0  0
    0.6336   77.1805   83.0921 C   0  0  0  0  0  0  0  0  0  0  0  0
    0.2076   76.8326   80.6300 C   0  0  0  0  0  0  0  0  0  0  0  0
   -1.2190   76.8089   80.5664 O   0  0  0  0  0  0  0  0  0  0  0  0
   -1.6843   76.8293   79.2235 C   0  0  0  0  0  0  0  0  0  0  0  0
 31 32  1  0  0  0
 32 30  1  0  0  0
 30 24  1  0  0  0
 24 25  1  0  0  0
 25 26  1  0  0  0
 26 27  1  0  0  0
 27 21  1  0  0  0
 21 22  2  0  0  0
 21 23  2  0  0  0
 21  1  1  0  0  0
  1  2  1  0  0  0
  2  3  2  0  0  0
  3  4  1  0  0  0
  4 33  1  0  0  0
 33 34  1  0  0  0
 34 35  1  0  0  0
 34 36  1  0  0  0
 36 37  1  0  0  0
 37 38  1  0  0  0
  4  5  2  0  0  0
  5  7  1  0  0  0
  7  8  2  0  0  0
  8  9  1  0  0  0
  9 10  2  0  0  0
 10 19  1  0  0  0
 19 20  1  0  0  0
 10 11  1  0  0  0
 11 12  1  0  0  0
 11 13  1  0  0  0
 13 14  2  0  0  0
 14 15  1  0  0  0
 15 16  2  0  0  0
 15 17  1  0  0  0
  5  6  1  0  0  0
 27 28  1  0  0  0
 28 29  1  0  0  0
 29 24  1  0  0  0
  6  1  2  0  0  0
 17  7  1  0  0  0
 14  9  1  0  0  0
 17 18  1  0  0  0
M  END
> <minimizedAffinity>
-1.56098

$$$$



 38 41  0  0  0  0  0  0  0  0999 V2000
    1.7568   70.8351   81.6801 C   0  0  0  0  0  0  0  0  0  0  0  0
    1.3220   70.3632   80.4593 C   0  0  0  0  0  0  0  0  0  0  0  0
    1.3038   69.0462   80.1458 N   0  0  0  0  0  0  0  0  0  0  0  0
    1.7562   68.1714   81.0779 C   0  0  0  0  0  0  0  0  0  0  0  0
    2.2219   68.5579   82.3397 C   0  0  0  0  0  0  0  0  0  0  0  0
    2.2252   69.9309   82.6305 C   0  0  0  0  0  0  0  0  0  0  0  0
    2.7057   67.6143   83.3995 C   0  0  0  0  0  0  0  0  0  0  0  0
    3.8889   67.8015   83.9173 N   0  0  0  0  0  0  0  0  0  0  0  0
    4.2455   66.8664   84.8884 C   0  0  0  0  0  0  0  0  0  0  0  0
    5.4132   66.7875   85.5992 C   0  0  0  0  0  0  0  0  0  0  0  0
    5.2394   65.6843   86.4070 N   0  0  0  0  0  0  0  0  0  0  0  0
    6.1781   65.1466   87.3649 C   0  0  0  0  0  0  0  0  0  0  0  0
    4.0376   65.0763   86.2564 N   0  0  0  0  0  0  0  0  0  0  0  0
    3.4340   65.8092   85.3107 C   0  0  0  0  0  0  0  0  0  0  0  0
    2.1229   65.6249   84.7317 C   0  0  0  0  0  0  0  0  0  0  0  0
    1.3108   64.7521   85.0234 O   0  0  0  0  0  0  0  0  0  0  0  0
    1.8516   66.5801   83.7694 N   0  0  0  0  0  0  0  0  0  0  0  0
    0.9364   66.4930   83.3459 H   0  0  0  0  0  0  0  0  0  0  0  0
    6.6333   67.6390   85.5734 C   0  0  0  0  0  0  0  0  0  0  0  0
    7.7422   67.0062   84.7470 C   0  0  0  0  0  0  0  0  0  0  0  0
    1.7527   72.5700   81.9715 S   0  0  0  0  0  0  0  0  0  0  0  0
    2.5699   72.7975   83.1437 O   0  0  0  0  0  0  0  0  0  0  0  0
    0.3836   73.0318   81.9197 O   0  0  0  0  0  0  0  0  0  0  0  0
    4.3285   75.5242   80.9577 N   0  0  0  0  0  0  0  0  0  0  0  0
    2.8644   75.6747   80.9022 C   0  0  0  0  0  0  0  0  0  0  0  0
    2.1886   74.5299   80.1162 C   0  0  0  0  0  0  0  0  0  0  0  0
    2.5819   73.1728   80.6165 N   0  0  0  0  0  0  0  0  0  0  0  0
    4.0747   73.0643   80.6918 C   0  0  0  0  0  0  0  0  0  0  0  0
    4.6919   74.2097   81.5160 C   0  0  0  0  0  0  0  0  0  0  0  0
    5.0022   76.6445   81.6265 C   0  0  0  0  0  0  0  0  0  0  0  0
    7.3897   77.4362   81.7954 C   0  0  0  0  0  0  0  0  0  0  0  0
    6.1774   77.2962   80.8845 C   0  0  0  0  0  0  0  0  0  0  0  0
    1.7196   66.8269   80.7696 O   0  0  0  0  0  0  0  0  0  0  0  0
    0.5267   66.3660   80.1088 C   0  0  0  0  0  0  0  0  0  0  0  0
    0.9983   65.5636   78.8940 C   0  0  0  0  0  0  0  0  0  0  0  0
   -0.3071   65.4838   81.0513 C   0  0  0  0  0  0  0  0  0  0  0  0
   -0.6782   64.2712   80.3943 O   0  0  0  0  0  0  0  0  0  0  0  0
   -0.5114   63.1430   81.2427 C   0  0  0  0  0  0  0  0  0  0  0  0
 31 32  1  0  0  0
 32 30  1  0  0  0
 30 24  1  0  0  0
 24 25  1  0  0  0
 25 26  1  0  0  0
 26 27  1  0  0  0
 27 21  1  0  0  0
 21 22  2  0  0  0
 21 23  2  0  0  0
 21  1  1  0  0  0
  1  2  1  0  0  0
  2  3  2  0  0  0
  3  4  1  0  0  0
  4 33  1  0  0  0
 33 34  1  0  0  0
 34 35  1  0  0  0
 34 36  1  0  0  0
 36 37  1  0  0  0
 37 38  1  0  0  0
  4  5  2  0  0  0
  5  7  1  0  0  0
  7  8  2  0  0  0
  8  9  1  0  0  0
  9 10  2  0  0  0
 10 19  1  0  0  0
 19 20  1  0  0  0
 10 11  1  0  0  0
 11 12  1  0  0  0
 11 13  1  0  0  0
 13 14  2  0  0  0
 14 15  1  0  0  0
 15 16  2  0  0  0
 15 17  1  0  0  0
  5  6  1  0  0  0
 27 28  1  0  0  0
 28 29  1  0  0  0
 29 24  1  0  0  0
  6  1  2  0  0  0
 17  7  1  0  0  0
 14  9  1  0  0  0
 17 18  1  0  0  0
M  END
> <minimizedAffinity>
-1.52888

$$$$
