


 45 48  0  0  0  0  0  0  0  0999 V2000
    3.7498   66.6840   84.6540 C   0  0  0  0  0  0  0  0  0  0  0  0
    4.5927   67.7176   84.2235 C   0  0  0  0  0  0  0  0  0  0  0  0
    4.1139   68.7213   83.3755 C   0  0  0  0  0  0  0  0  0  0  0  0
    2.7794   68.7067   82.9713 C   0  0  0  0  0  0  0  0  0  0  0  0
    1.9124   67.7250   83.4474 C   0  0  0  0  0  0  0  0  0  0  0  0
    2.3942   66.6948   84.2699 C   0  0  0  0  0  0  0  0  0  0  0  0
    1.4176   65.6211   84.6343 C   0  0  0  0  0  0  0  0  0  0  0  0
    0.7249   65.0495   83.6898 N   0  0  0  0  0  0  0  0  0  0  0  0
   -0.1584   64.0668   84.1359 C   0  0  0  0  0  0  0  0  0  0  0  0
   -1.0157   63.2845   83.3374 C   0  0  0  0  0  0  0  0  0  0  0  0
   -1.6927   62.4279   84.2181 C   0  0  0  0  0  0  0  0  0  0  0  0
   -1.2628   62.7473   85.5056 N   0  0  0  0  0  0  0  0  0  0  0  0
   -1.7558   62.1621   86.7360 C   0  0  0  0  0  0  0  0  0  0  0  0
   -0.2950   63.7168   85.4466 C   0  0  0  0  0  0  0  0  0  0  0  0
    0.4885   64.3238   86.4752 C   0  0  0  0  0  0  0  0  0  0  0  0
    0.4758   64.0224   87.6637 O   0  0  0  0  0  0  0  0  0  0  0  0
    1.3120   65.3056   85.9791 N   0  0  0  0  0  0  0  0  0  0  0  0
    1.9262   65.7496   86.6490 H   0  0  0  0  0  0  0  0  0  0  0  0
   -2.6585   61.3887   83.9194 C   0  0  0  0  0  0  0  0  0  0  0  0
   -2.4090   60.4370   83.0767 N   0  0  0  0  0  0  0  0  0  0  0  0
   -3.5201   59.5871   82.9957 O   0  0  0  0  0  0  0  0  0  0  0  0
   -3.2287   58.9298   82.3358 H   0  0  0  0  0  0  0  0  0  0  0  0
   -1.1212   63.3651   81.8435 C   0  0  0  0  0  0  0  0  0  0  0  0
    0.0684   62.7464   81.1052 C   0  0  0  0  0  0  0  0  0  0  0  0
    0.7130   61.5935   81.8633 C   0  0  0  0  0  0  0  0  0  0  0  0
    2.1518   69.9772   81.8932 S   0  0  0  0  0  0  0  0  0  0  0  0
    0.9943   70.5538   82.5417 O   0  0  0  0  0  0  0  0  0  0  0  0
    3.2774   70.8000   81.5009 O   0  0  0  0  0  0  0  0  0  0  0  0
    1.6403   69.1243   80.5275 N   0  0  0  0  0  0  0  0  0  0  0  0
    0.1931   69.0958   80.1927 C   0  0  0  0  0  0  0  0  0  0  0  0
   -0.4337   67.6910   80.3282 C   0  0  0  0  0  0  0  0  0  0  0  0
    0.3532   66.5940   79.7525 N   0  0  0  0  0  0  0  0  0  0  0  0
    1.6319   67.0095   79.1781 C   0  0  0  0  0  0  0  0  0  0  0  0
    2.4065   67.9038   80.1631 C   0  0  0  0  0  0  0  0  0  0  0  0
   -0.3908   65.5758   79.0230 C   0  0  0  0  0  0  0  0  0  0  0  0
    0.3325   64.8212   77.9018 C   0  0  0  0  0  0  0  0  0  0  0  0
   -0.5681   63.9244   77.0612 C   0  0  0  0  0  0  0  0  0  0  0  0
    0.1338   62.7066   76.8174 O   0  0  0  0  0  0  0  0  0  0  0  0
   -0.5895   61.5687   77.2505 N   0  0  0  0  0  0  0  0  0  0  0  0
   -1.5531   61.8578   77.9567 O   0  0  0  0  0  0  0  0  0  0  0  0
   -0.1803   60.4666   76.8816 O   0  0  0  0  0  0  0  0  0  0  0  0
    4.1752   65.6723   85.4757 O   0  0  0  0  0  0  0  0  0  0  0  0
    5.5525   65.2857   85.4070 C   0  0  0  0  0  0  0  0  0  0  0  0
    5.3543   65.4901   87.9293 C   0  0  0  0  0  0  0  0  0  0  0  0
    6.2921   65.4876   86.7306 C   0  0  0  0  0  0  0  0  0  0  0  0
 44 45  1  0  0  0
 45 43  1  0  0  0
 43 42  1  0  0  0
 42  1  1  0  0  0
  1  2  1  0  0  0
  2  3  2  0  0  0
  3  4  1  0  0  0
  4 26  1  0  0  0
 26 27  2  0  0  0
 26 28  2  0  0  0
 26 29  1  0  0  0
 29 30  1  0  0  0
 30 31  1  0  0  0
 31 32  1  0  0  0
 32 35  1  0  0  0
 35 36  1  0  0  0
 36 37  1  0  0  0
 37 38  1  0  0  0
 38 39  1  0  0  0
 39 40  2  0  0  0
 39 41  1  0  0  0
 32 33  1  0  0  0
 33 34  1  0  0  0
  4  5  2  0  0  0
  5  6  1  0  0  0
  6  7  1  0  0  0
  7  8  2  0  0  0
  8  9  1  0  0  0
  9 10  1  0  0  0
 10 23  1  0  0  0
 23 24  1  0  0  0
 24 25  1  0  0  0
 10 11  2  0  0  0
 11 19  1  0  0  0
 19 20  2  0  0  0
 20 21  1  0  0  0
 11 12  1  0  0  0
 12 13  1  0  0  0
 12 14  1  0  0  0
 14 15  1  0  0  0
 15 16  2  0  0  0
 15 17  1  0  0  0
  6  1  2  0  0  0
 17  7  1  0  0  0
 34 29  1  0  0  0
 14  9  2  0  0  0
 21 22  1  0  0  0
 17 18  1  0  0  0
M  CHG 1  39   1
M  CHG 1  41  -1
M  END
> <minimizedAffinity>
-10.10160

$$$$



 45 48  0  0  0  0  0  0  0  0999 V2000
    3.8061   66.8815   84.5765 C   0  0  0  0  0  0  0  0  0  0  0  0
    4.6160   67.9325   84.1254 C   0  0  0  0  0  0  0  0  0  0  0  0
    4.1143   68.8875   83.2354 C   0  0  0  0  0  0  0  0  0  0  0  0
    2.7891   68.8067   82.8090 C   0  0  0  0  0  0  0  0  0  0  0  0
    1.9522   67.8080   83.3036 C   0  0  0  0  0  0  0  0  0  0  0  0
    2.4584   66.8258   84.1690 C   0  0  0  0  0  0  0  0  0  0  0  0
    1.5177   65.7272   84.5532 C   0  0  0  0  0  0  0  0  0  0  0  0
    0.7324   65.2209   83.6446 N   0  0  0  0  0  0  0  0  0  0  0  0
   -0.1070   64.2076   84.1069 C   0  0  0  0  0  0  0  0  0  0  0  0
   -1.0426   63.4805   83.3450 C   0  0  0  0  0  0  0  0  0  0  0  0
   -1.6331   62.5635   84.2271 C   0  0  0  0  0  0  0  0  0  0  0  0
   -1.0766   62.7939   85.4847 N   0  0  0  0  0  0  0  0  0  0  0  0
   -1.4482   62.1239   86.7144 C   0  0  0  0  0  0  0  0  0  0  0  0
   -0.1150   63.7674   85.3974 C   0  0  0  0  0  0  0  0  0  0  0  0
    0.7692   64.3036   86.3828 C   0  0  0  0  0  0  0  0  0  0  0  0
    0.8727   63.9206   87.5431 O   0  0  0  0  0  0  0  0  0  0  0  0
    1.5441   65.3192   85.8768 N   0  0  0  0  0  0  0  0  0  0  0  0
    2.2236   65.7172   86.5117 H   0  0  0  0  0  0  0  0  0  0  0  0
   -2.6285   61.5452   83.9543 C   0  0  0  0  0  0  0  0  0  0  0  0
   -2.4210   60.5876   83.1070 N   0  0  0  0  0  0  0  0  0  0  0  0
   -3.5519   59.7620   83.0551 O   0  0  0  0  0  0  0  0  0  0  0  0
   -3.2917   59.0979   82.3891 H   0  0  0  0  0  0  0  0  0  0  0  0
   -1.2949   63.6640   81.8781 C   0  0  0  0  0  0  0  0  0  0  0  0
   -0.1046   63.2844   80.9936 C   0  0  0  0  0  0  0  0  0  0  0  0
    0.4011   61.8694   81.2408 C   0  0  0  0  0  0  0  0  0  0  0  0
    2.1326   70.0145   81.6774 S   0  0  0  0  0  0  0  0  0  0  0  0
    1.9396   69.3489   80.4076 O   0  0  0  0  0  0  0  0  0  0  0  0
    1.0344   70.6778   82.3495 O   0  0  0  0  0  0  0  0  0  0  0  0
    3.3872   71.1347   81.5180 N   0  0  0  0  0  0  0  0  0  0  0  0
    3.2368   72.4807   82.1289 C   0  0  0  0  0  0  0  0  0  0  0  0
    3.1540   73.6153   81.0846 C   0  0  0  0  0  0  0  0  0  0  0  0
    4.1351   73.5394   79.9957 N   0  0  0  0  0  0  0  0  0  0  0  0
    5.0092   72.3691   80.0556 C   0  0  0  0  0  0  0  0  0  0  0  0
    4.1865   71.0849   80.2658 C   0  0  0  0  0  0  0  0  0  0  0  0
    4.7516   74.7955   79.5898 C   0  0  0  0  0  0  0  0  0  0  0  0
    5.2690   74.9111   78.1516 C   0  0  0  0  0  0  0  0  0  0  0  0
    6.7838   75.0272   78.0330 C   0  0  0  0  0  0  0  0  0  0  0  0
    7.2959   73.7371   77.7036 O   0  0  0  0  0  0  0  0  0  0  0  0
    8.1291   73.2095   78.7199 N   0  0  0  0  0  0  0  0  0  0  0  0
    8.4122   72.0274   78.5373 O   0  0  0  0  0  0  0  0  0  0  0  0
    8.4570   73.9706   79.6317 O   0  0  0  0  0  0  0  0  0  0  0  0
    4.2552   65.9155   85.4396 O   0  0  0  0  0  0  0  0  0  0  0  0
    5.2105   66.2970   86.4361 C   0  0  0  0  0  0  0  0  0  0  0  0
    5.6590   65.5129   88.8083 C   0  0  0  0  0  0  0  0  0  0  0  0
    5.6275   65.1318   87.3351 C   0  0  0  0  0  0  0  0  0  0  0  0
 44 45  1  0  0  0
 45 43  1  0  0  0
 43 42  1  0  0  0
 42  1  1  0  0  0
  1  2  1  0  0  0
  2  3  2  0  0  0
  3  4  1  0  0  0
  4 26  1  0  0  0
 26 27  2  0  0  0
 26 28  2  0  0  0
 26 29  1  0  0  0
 29 30  1  0  0  0
 30 31  1  0  0  0
 31 32  1  0  0  0
 32 35  1  0  0  0
 35 36  1  0  0  0
 36 37  1  0  0  0
 37 38  1  0  0  0
 38 39  1  0  0  0
 39 40  2  0  0  0
 39 41  1  0  0  0
 32 33  1  0  0  0
 33 34  1  0  0  0
  4  5  2  0  0  0
  5  6  1  0  0  0
  6  7  1  0  0  0
  7  8  2  0  0  0
  8  9  1  0  0  0
  9 10  1  0  0  0
 10 23  1  0  0  0
 23 24  1  0  0  0
 24 25  1  0  0  0
 10 11  2  0  0  0
 11 19  1  0  0  0
 19 20  2  0  0  0
 20 21  1  0  0  0
 11 12  1  0  0  0
 12 13  1  0  0  0
 12 14  1  0  0  0
 14 15  1  0  0  0
 15 16  2  0  0  0
 15 17  1  0  0  0
  6  1  2  0  0  0
 17  7  1  0  0  0
 34 29  1  0  0  0
 14  9  2  0  0  0
 21 22  1  0  0  0
 17 18  1  0  0  0
M  CHG 1  39   1
M  CHG 1  41  -1
M  END
> <minimizedAffinity>
-9.41572

$$$$



 45 48  0  0  0  0  0  0  0  0999 V2000
    3.6901   67.0052   84.4524 C   0  0  0  0  0  0  0  0  0  0  0  0
    4.4717   68.0633   83.9693 C   0  0  0  0  0  0  0  0  0  0  0  0
    3.9548   68.9598   83.0287 C   0  0  0  0  0  0  0  0  0  0  0  0
    2.6417   68.8134   82.5827 C   0  0  0  0  0  0  0  0  0  0  0  0
    1.8304   67.8085   83.1064 C   0  0  0  0  0  0  0  0  0  0  0  0
    2.3533   66.8839   84.0238 C   0  0  0  0  0  0  0  0  0  0  0  0
    1.4439   65.7707   84.4398 C   0  0  0  0  0  0  0  0  0  0  0  0
    0.6401   65.2477   83.5571 N   0  0  0  0  0  0  0  0  0  0  0  0
   -0.1671   64.2218   84.0478 C   0  0  0  0  0  0  0  0  0  0  0  0
   -1.1127   63.4760   83.3170 C   0  0  0  0  0  0  0  0  0  0  0  0
   -1.6602   62.5521   84.2194 C   0  0  0  0  0  0  0  0  0  0  0  0
   -1.0697   62.7965   85.4588 N   0  0  0  0  0  0  0  0  0  0  0  0
   -1.3922   62.1246   86.7014 C   0  0  0  0  0  0  0  0  0  0  0  0
   -0.1282   63.7861   85.3393 C   0  0  0  0  0  0  0  0  0  0  0  0
    0.7761   64.3409   86.2957 C   0  0  0  0  0  0  0  0  0  0  0  0
    0.9214   63.9639   87.4534 O   0  0  0  0  0  0  0  0  0  0  0  0
    1.5175   65.3679   85.7632 N   0  0  0  0  0  0  0  0  0  0  0  0
    2.2091   65.7798   86.3759 H   0  0  0  0  0  0  0  0  0  0  0  0
   -2.6457   61.5159   83.9803 C   0  0  0  0  0  0  0  0  0  0  0  0
   -2.4546   60.5685   83.1176 N   0  0  0  0  0  0  0  0  0  0  0  0
   -3.5701   59.7207   83.1063 O   0  0  0  0  0  0  0  0  0  0  0  0
   -3.3246   59.0666   82.4249 H   0  0  0  0  0  0  0  0  0  0  0  0
   -1.4127   63.6499   81.8579 C   0  0  0  0  0  0  0  0  0  0  0  0
   -0.4033   62.9651   80.9331 C   0  0  0  0  0  0  0  0  0  0  0  0
    0.1197   63.8784   79.8324 C   0  0  0  0  0  0  0  0  0  0  0  0
    1.9660   69.9462   81.3867 S   0  0  0  0  0  0  0  0  0  0  0  0
    3.0285   70.2735   80.4611 O   0  0  0  0  0  0  0  0  0  0  0  0
    0.7156   69.3819   80.9218 O   0  0  0  0  0  0  0  0  0  0  0  0
    1.5999   71.3192   82.3005 N   0  0  0  0  0  0  0  0  0  0  0  0
    0.3148   72.0254   82.0615 C   0  0  0  0  0  0  0  0  0  0  0  0
    0.5003   73.4398   81.4700 C   0  0  0  0  0  0  0  0  0  0  0  0
    1.5419   74.2549   82.1065 N   0  0  0  0  0  0  0  0  0  0  0  0
    2.2676   73.5730   83.1768 C   0  0  0  0  0  0  0  0  0  0  0  0
    2.7374   72.1813   82.7156 C   0  0  0  0  0  0  0  0  0  0  0  0
    1.2226   75.6595   82.3252 C   0  0  0  0  0  0  0  0  0  0  0  0
    2.3839   76.6561   82.4120 C   0  0  0  0  0  0  0  0  0  0  0  0
    2.5121   77.3606   83.7571 C   0  0  0  0  0  0  0  0  0  0  0  0
    3.1496   76.4607   84.6621 O   0  0  0  0  0  0  0  0  0  0  0  0
    4.5561   76.6243   84.6877 N   0  0  0  0  0  0  0  0  0  0  0  0
    5.1525   75.5779   84.9331 O   0  0  0  0  0  0  0  0  0  0  0  0
    4.9962   77.7543   84.4698 O   0  0  0  0  0  0  0  0  0  0  0  0
    4.1554   66.0946   85.3657 O   0  0  0  0  0  0  0  0  0  0  0  0
    5.4709   65.5622   85.1726 C   0  0  0  0  0  0  0  0  0  0  0  0
    5.4951   65.4750   87.7093 C   0  0  0  0  0  0  0  0  0  0  0  0
    6.3245   65.6152   86.4408 C   0  0  0  0  0  0  0  0  0  0  0  0
 44 45  1  0  0  0
 45 43  1  0  0  0
 43 42  1  0  0  0
 42  1  1  0  0  0
  1  2  1  0  0  0
  2  3  2  0  0  0
  3  4  1  0  0  0
  4 26  1  0  0  0
 26 27  2  0  0  0
 26 28  2  0  0  0
 26 29  1  0  0  0
 29 30  1  0  0  0
 30 31  1  0  0  0
 31 32  1  0  0  0
 32 35  1  0  0  0
 35 36  1  0  0  0
 36 37  1  0  0  0
 37 38  1  0  0  0
 38 39  1  0  0  0
 39 40  2  0  0  0
 39 41  1  0  0  0
 32 33  1  0  0  0
 33 34  1  0  0  0
  4  5  2  0  0  0
  5  6  1  0  0  0
  6  7  1  0  0  0
  7  8  2  0  0  0
  8  9  1  0  0  0
  9 10  1  0  0  0
 10 23  1  0  0  0
 23 24  1  0  0  0
 24 25  1  0  0  0
 10 11  2  0  0  0
 11 19  1  0  0  0
 19 20  2  0  0  0
 20 21  1  0  0  0
 11 12  1  0  0  0
 12 13  1  0  0  0
 12 14  1  0  0  0
 14 15  1  0  0  0
 15 16  2  0  0  0
 15 17  1  0  0  0
  6  1  2  0  0  0
 17  7  1  0  0  0
 34 29  1  0  0  0
 14  9  2  0  0  0
 21 22  1  0  0  0
 17 18  1  0  0  0
M  CHG 1  39   1
M  CHG 1  41  -1
M  END
> <minimizedAffinity>
-9.28662

$$$$



 45 48  0  0  0  0  0  0  0  0999 V2000
    3.8015   66.8466   84.6217 C   0  0  0  0  0  0  0  0  0  0  0  0
    4.6288   67.8757   84.1522 C   0  0  0  0  0  0  0  0  0  0  0  0
    4.1677   68.7768   83.1872 C   0  0  0  0  0  0  0  0  0  0  0  0
    2.8650   68.6645   82.7026 C   0  0  0  0  0  0  0  0  0  0  0  0
    2.0084   67.6898   83.2112 C   0  0  0  0  0  0  0  0  0  0  0  0
    2.4753   66.7603   84.1535 C   0  0  0  0  0  0  0  0  0  0  0  0
    1.5208   65.6791   84.5525 C   0  0  0  0  0  0  0  0  0  0  0  0
    0.7592   65.1405   83.6422 N   0  0  0  0  0  0  0  0  0  0  0  0
   -0.0960   64.1473   84.1189 C   0  0  0  0  0  0  0  0  0  0  0  0
   -1.0125   63.3940   83.3593 C   0  0  0  0  0  0  0  0  0  0  0  0
   -1.6302   62.5123   84.2585 C   0  0  0  0  0  0  0  0  0  0  0  0
   -1.1079   62.7888   85.5215 N   0  0  0  0  0  0  0  0  0  0  0  0
   -1.5156   62.1666   86.7649 C   0  0  0  0  0  0  0  0  0  0  0  0
   -0.1411   63.7562   85.4244 C   0  0  0  0  0  0  0  0  0  0  0  0
    0.7173   64.3272   86.4131 C   0  0  0  0  0  0  0  0  0  0  0  0
    0.7873   63.9881   87.5893 O   0  0  0  0  0  0  0  0  0  0  0  0
    1.5091   65.3213   85.8908 N   0  0  0  0  0  0  0  0  0  0  0  0
    2.1721   65.7415   86.5289 H   0  0  0  0  0  0  0  0  0  0  0  0
   -2.6210   61.4867   83.9968 C   0  0  0  0  0  0  0  0  0  0  0  0
   -2.4422   60.5677   83.1015 N   0  0  0  0  0  0  0  0  0  0  0  0
   -3.5600   59.7231   83.0752 O   0  0  0  0  0  0  0  0  0  0  0  0
   -3.3239   59.0912   82.3700 H   0  0  0  0  0  0  0  0  0  0  0  0
   -1.2235   63.5225   81.8800 C   0  0  0  0  0  0  0  0  0  0  0  0
   -0.0128   63.1010   81.0436 C   0  0  0  0  0  0  0  0  0  0  0  0
    0.4856   61.6997   81.3710 C   0  0  0  0  0  0  0  0  0  0  0  0
    2.2601   69.8036   81.4751 S   0  0  0  0  0  0  0  0  0  0  0  0
    3.3791   70.1504   80.6265 O   0  0  0  0  0  0  0  0  0  0  0  0
    1.0494   69.2328   80.9215 O   0  0  0  0  0  0  0  0  0  0  0  0
    1.8198   71.1635   82.3758 N   0  0  0  0  0  0  0  0  0  0  0  0
    0.5148   71.8195   82.1038 C   0  0  0  0  0  0  0  0  0  0  0  0
    0.6604   73.2388   81.5128 C   0  0  0  0  0  0  0  0  0  0  0  0
    1.6544   74.0944   82.1717 N   0  0  0  0  0  0  0  0  0  0  0  0
    2.3795   73.4429   83.2613 C   0  0  0  0  0  0  0  0  0  0  0  0
    2.9131   72.0693   82.8156 C   0  0  0  0  0  0  0  0  0  0  0  0
    1.2765   75.4862   82.3786 C   0  0  0  0  0  0  0  0  0  0  0  0
    2.2994   76.5701   82.0208 C   0  0  0  0  0  0  0  0  0  0  0  0
    3.2632   76.1851   80.9050 C   0  0  0  0  0  0  0  0  0  0  0  0
    4.5913   76.3534   81.3979 O   0  0  0  0  0  0  0  0  0  0  0  0
    5.1458   75.1442   81.8836 N   0  0  0  0  0  0  0  0  0  0  0  0
    5.4659   75.2096   83.0685 O   0  0  0  0  0  0  0  0  0  0  0  0
    5.2381   74.2071   81.0889 O   0  0  0  0  0  0  0  0  0  0  0  0
    4.2114   65.9327   85.5579 O   0  0  0  0  0  0  0  0  0  0  0  0
    5.4024   65.1841   85.2890 C   0  0  0  0  0  0  0  0  0  0  0  0
    7.8025   65.9642   85.0171 C   0  0  0  0  0  0  0  0  0  0  0  0
    6.6378   65.7674   85.9770 C   0  0  0  0  0  0  0  0  0  0  0  0
 44 45  1  0  0  0
 45 43  1  0  0  0
 43 42  1  0  0  0
 42  1  1  0  0  0
  1  2  1  0  0  0
  2  3  2  0  0  0
  3  4  1  0  0  0
  4 26  1  0  0  0
 26 27  2  0  0  0
 26 28  2  0  0  0
 26 29  1  0  0  0
 29 30  1  0  0  0
 30 31  1  0  0  0
 31 32  1  0  0  0
 32 35  1  0  0  0
 35 36  1  0  0  0
 36 37  1  0  0  0
 37 38  1  0  0  0
 38 39  1  0  0  0
 39 40  2  0  0  0
 39 41  1  0  0  0
 32 33  1  0  0  0
 33 34  1  0  0  0
  4  5  2  0  0  0
  5  6  1  0  0  0
  6  7  1  0  0  0
  7  8  2  0  0  0
  8  9  1  0  0  0
  9 10  1  0  0  0
 10 23  1  0  0  0
 23 24  1  0  0  0
 24 25  1  0  0  0
 10 11  2  0  0  0
 11 19  1  0  0  0
 19 20  2  0  0  0
 20 21  1  0  0  0
 11 12  1  0  0  0
 12 13  1  0  0  0
 12 14  1  0  0  0
 14 15  1  0  0  0
 15 16  2  0  0  0
 15 17  1  0  0  0
  6  1  2  0  0  0
 17  7  1  0  0  0
 34 29  1  0  0  0
 14  9  2  0  0  0
 21 22  1  0  0  0
 17 18  1  0  0  0
M  CHG 1  39   1
M  CHG 1  41  -1
M  END
> <minimizedAffinity>
-9.25260

$$$$



 45 48  0  0  0  0  0  0  0  0999 V2000
    0.8427   65.0781   83.9174 C   0  0  0  0  0  0  0  0  0  0  0  0
    1.5023   66.2436   84.3304 C   0  0  0  0  0  0  0  0  0  0  0  0
    1.6818   67.3123   83.4464 C   0  0  0  0  0  0  0  0  0  0  0  0
    1.1809   67.2273   82.1478 C   0  0  0  0  0  0  0  0  0  0  0  0
    0.4619   66.1034   81.7449 C   0  0  0  0  0  0  0  0  0  0  0  0
    0.3087   65.0128   82.6151 C   0  0  0  0  0  0  0  0  0  0  0  0
   -0.3744   63.8047   82.0555 C   0  0  0  0  0  0  0  0  0  0  0  0
   -0.1905   63.4982   80.8021 N   0  0  0  0  0  0  0  0  0  0  0  0
   -0.8749   62.3586   80.3803 C   0  0  0  0  0  0  0  0  0  0  0  0
   -0.8488   61.7942   79.0898 C   0  0  0  0  0  0  0  0  0  0  0  0
   -1.6680   60.6569   79.1466 C   0  0  0  0  0  0  0  0  0  0  0  0
   -2.1913   60.5978   80.4378 N   0  0  0  0  0  0  0  0  0  0  0  0
   -3.1491   59.6249   80.9231 C   0  0  0  0  0  0  0  0  0  0  0  0
   -1.6702   61.6124   81.1987 C   0  0  0  0  0  0  0  0  0  0  0  0
   -1.8443   61.9340   82.5795 C   0  0  0  0  0  0  0  0  0  0  0  0
   -2.4851   61.2813   83.3963 O   0  0  0  0  0  0  0  0  0  0  0  0
   -1.1755   63.0832   82.9256 N   0  0  0  0  0  0  0  0  0  0  0  0
   -1.2224   63.3471   83.9010 H   0  0  0  0  0  0  0  0  0  0  0  0
   -1.9564   59.6864   78.1089 C   0  0  0  0  0  0  0  0  0  0  0  0
   -1.0710   58.8366   77.6942 N   0  0  0  0  0  0  0  0  0  0  0  0
   -1.6339   58.0317   76.6950 O   0  0  0  0  0  0  0  0  0  0  0  0
   -0.8877   57.4510   76.4536 H   0  0  0  0  0  0  0  0  0  0  0  0
   -0.0589   62.3219   77.9293 C   0  0  0  0  0  0  0  0  0  0  0  0
   -0.8589   63.2420   77.0038 C   0  0  0  0  0  0  0  0  0  0  0  0
   -0.5340   64.7175   77.1953 C   0  0  0  0  0  0  0  0  0  0  0  0
    1.3986   68.5785   81.0090 S   0  0  0  0  0  0  0  0  0  0  0  0
    2.8031   68.6252   80.6657 O   0  0  0  0  0  0  0  0  0  0  0  0
    0.3820   68.4439   79.9861 O   0  0  0  0  0  0  0  0  0  0  0  0
    1.0196   69.9423   81.9314 N   0  0  0  0  0  0  0  0  0  0  0  0
   -0.2903   70.6128   81.7264 C   0  0  0  0  0  0  0  0  0  0  0  0
   -0.1593   72.0310   81.1294 C   0  0  0  0  0  0  0  0  0  0  0  0
    0.8762   72.8750   81.7373 N   0  0  0  0  0  0  0  0  0  0  0  0
    1.6486   72.2146   82.7882 C   0  0  0  0  0  0  0  0  0  0  0  0
    2.1437   70.8357   82.3155 C   0  0  0  0  0  0  0  0  0  0  0  0
    0.5245   74.2706   81.9636 C   0  0  0  0  0  0  0  0  0  0  0  0
    1.1129   75.3233   81.0175 C   0  0  0  0  0  0  0  0  0  0  0  0
    1.9702   74.7535   79.8938 C   0  0  0  0  0  0  0  0  0  0  0  0
    3.3307   75.0771   80.1758 O   0  0  0  0  0  0  0  0  0  0  0  0
    4.0769   73.9527   80.6053 N   0  0  0  0  0  0  0  0  0  0  0  0
    3.8089   72.9337   79.9722 O   0  0  0  0  0  0  0  0  0  0  0  0
    4.8747   74.1247   81.5283 O   0  0  0  0  0  0  0  0  0  0  0  0
    0.6522   64.0003   84.7430 O   0  0  0  0  0  0  0  0  0  0  0  0
    0.6092   64.2354   86.1552 C   0  0  0  0  0  0  0  0  0  0  0  0
   -0.2883   63.3953   88.3759 C   0  0  0  0  0  0  0  0  0  0  0  0
   -0.4589   63.4005   86.8634 C   0  0  0  0  0  0  0  0  0  0  0  0
 44 45  1  0  0  0
 45 43  1  0  0  0
 43 42  1  0  0  0
 42  1  1  0  0  0
  1  2  1  0  0  0
  2  3  2  0  0  0
  3  4  1  0  0  0
  4 26  1  0  0  0
 26 27  2  0  0  0
 26 28  2  0  0  0
 26 29  1  0  0  0
 29 30  1  0  0  0
 30 31  1  0  0  0
 31 32  1  0  0  0
 32 35  1  0  0  0
 35 36  1  0  0  0
 36 37  1  0  0  0
 37 38  1  0  0  0
 38 39  1  0  0  0
 39 40  2  0  0  0
 39 41  1  0  0  0
 32 33  1  0  0  0
 33 34  1  0  0  0
  4  5  2  0  0  0
  5  6  1  0  0  0
  6  7  1  0  0  0
  7  8  2  0  0  0
  8  9  1  0  0  0
  9 10  1  0  0  0
 10 23  1  0  0  0
 23 24  1  0  0  0
 24 25  1  0  0  0
 10 11  2  0  0  0
 11 19  1  0  0  0
 19 20  2  0  0  0
 20 21  1  0  0  0
 11 12  1  0  0  0
 12 13  1  0  0  0
 12 14  1  0  0  0
 14 15  1  0  0  0
 15 16  2  0  0  0
 15 17  1  0  0  0
  6  1  2  0  0  0
 17  7  1  0  0  0
 34 29  1  0  0  0
 14  9  2  0  0  0
 21 22  1  0  0  0
 17 18  1  0  0  0
M  CHG 1  39   1
M  CHG 1  41  -1
M  END
> <minimizedAffinity>
-9.10507

$$$$



 45 48  0  0  0  0  0  0  0  0999 V2000
    3.6367   67.0770   84.3949 C   0  0  0  0  0  0  0  0  0  0  0  0
    4.4121   68.1326   83.8964 C   0  0  0  0  0  0  0  0  0  0  0  0
    3.9019   68.9916   82.9179 C   0  0  0  0  0  0  0  0  0  0  0  0
    2.6012   68.8105   82.4488 C   0  0  0  0  0  0  0  0  0  0  0  0
    1.7945   67.8089   82.9857 C   0  0  0  0  0  0  0  0  0  0  0  0
    2.3117   66.9212   83.9419 C   0  0  0  0  0  0  0  0  0  0  0  0
    1.4108   65.8065   84.3724 C   0  0  0  0  0  0  0  0  0  0  0  0
    0.6342   65.2444   83.4894 N   0  0  0  0  0  0  0  0  0  0  0  0
   -0.1674   64.2209   83.9941 C   0  0  0  0  0  0  0  0  0  0  0  0
   -1.0857   63.4385   83.2666 C   0  0  0  0  0  0  0  0  0  0  0  0
   -1.6380   62.5333   84.1851 C   0  0  0  0  0  0  0  0  0  0  0  0
   -1.0778   62.8242   85.4285 N   0  0  0  0  0  0  0  0  0  0  0  0
   -1.4162   62.1848   86.6838 C   0  0  0  0  0  0  0  0  0  0  0  0
   -0.1493   63.8247   85.2987 C   0  0  0  0  0  0  0  0  0  0  0  0
    0.7258   64.4224   86.2565 C   0  0  0  0  0  0  0  0  0  0  0  0
    0.8522   64.0826   87.4279 O   0  0  0  0  0  0  0  0  0  0  0  0
    1.4625   65.4447   85.7087 N   0  0  0  0  0  0  0  0  0  0  0  0
    2.1343   65.8858   86.3229 H   0  0  0  0  0  0  0  0  0  0  0  0
   -2.6020   61.4748   83.9569 C   0  0  0  0  0  0  0  0  0  0  0  0
   -2.4032   60.5371   83.0854 N   0  0  0  0  0  0  0  0  0  0  0  0
   -3.4978   59.6625   83.0884 O   0  0  0  0  0  0  0  0  0  0  0  0
   -3.2485   59.0184   82.3989 H   0  0  0  0  0  0  0  0  0  0  0  0
   -1.3571   63.5637   81.7970 C   0  0  0  0  0  0  0  0  0  0  0  0
   -0.1607   63.2006   80.9139 C   0  0  0  0  0  0  0  0  0  0  0  0
    0.3654   61.7934   81.1631 C   0  0  0  0  0  0  0  0  0  0  0  0
    1.9341   69.8954   81.2046 S   0  0  0  0  0  0  0  0  0  0  0  0
    2.5791   69.5584   79.9543 O   0  0  0  0  0  0  0  0  0  0  0  0
    0.4921   69.8615   81.3360 O   0  0  0  0  0  0  0  0  0  0  0  0
    2.4567   71.4271   81.6894 N   0  0  0  0  0  0  0  0  0  0  0  0
    1.7612   72.1064   82.8129 C   0  0  0  0  0  0  0  0  0  0  0  0
    0.9982   73.3758   82.3758 C   0  0  0  0  0  0  0  0  0  0  0  0
    1.7334   74.2715   81.4750 N   0  0  0  0  0  0  0  0  0  0  0  0
    3.0625   73.7898   81.1025 C   0  0  0  0  0  0  0  0  0  0  0  0
    2.9995   72.3240   80.6357 C   0  0  0  0  0  0  0  0  0  0  0  0
    1.6046   75.6995   81.7335 C   0  0  0  0  0  0  0  0  0  0  0  0
    0.6607   76.5103   80.8383 C   0  0  0  0  0  0  0  0  0  0  0  0
   -0.5475   77.0943   81.5602 C   0  0  0  0  0  0  0  0  0  0  0  0
   -0.8559   76.2377   82.6585 O   0  0  0  0  0  0  0  0  0  0  0  0
   -1.2753   76.9562   83.8045 N   0  0  0  0  0  0  0  0  0  0  0  0
   -0.3576   77.5729   84.3417 O   0  0  0  0  0  0  0  0  0  0  0  0
   -2.4653   76.8787   84.1143 O   0  0  0  0  0  0  0  0  0  0  0  0
    4.0962   66.2023   85.3454 O   0  0  0  0  0  0  0  0  0  0  0  0
    5.4283   66.3854   85.8385 C   0  0  0  0  0  0  0  0  0  0  0  0
    7.7241   66.0481   84.8098 C   0  0  0  0  0  0  0  0  0  0  0  0
    6.4235   65.3875   85.2440 C   0  0  0  0  0  0  0  0  0  0  0  0
 44 45  1  0  0  0
 45 43  1  0  0  0
 43 42  1  0  0  0
 42  1  1  0  0  0
  1  2  1  0  0  0
  2  3  2  0  0  0
  3  4  1  0  0  0
  4 26  1  0  0  0
 26 27  2  0  0  0
 26 28  2  0  0  0
 26 29  1  0  0  0
 29 30  1  0  0  0
 30 31  1  0  0  0
 31 32  1  0  0  0
 32 35  1  0  0  0
 35 36  1  0  0  0
 36 37  1  0  0  0
 37 38  1  0  0  0
 38 39  1  0  0  0
 39 40  2  0  0  0
 39 41  1  0  0  0
 32 33  1  0  0  0
 33 34  1  0  0  0
  4  5  2  0  0  0
  5  6  1  0  0  0
  6  7  1  0  0  0
  7  8  2  0  0  0
  8  9  1  0  0  0
  9 10  1  0  0  0
 10 23  1  0  0  0
 23 24  1  0  0  0
 24 25  1  0  0  0
 10 11  2  0  0  0
 11 19  1  0  0  0
 19 20  2  0  0  0
 20 21  1  0  0  0
 11 12  1  0  0  0
 12 13  1  0  0  0
 12 14  1  0  0  0
 14 15  1  0  0  0
 15 16  2  0  0  0
 15 17  1  0  0  0
  6  1  2  0  0  0
 17  7  1  0  0  0
 34 29  1  0  0  0
 14  9  2  0  0  0
 21 22  1  0  0  0
 17 18  1  0  0  0
M  CHG 1  39   1
M  CHG 1  41  -1
M  END
> <minimizedAffinity>
-9.08026

$$$$



 45 48  0  0  0  0  0  0  0  0999 V2000
    0.8918   65.1155   83.9169 C   0  0  0  0  0  0  0  0  0  0  0  0
    1.5551   66.2763   84.3370 C   0  0  0  0  0  0  0  0  0  0  0  0
    1.7476   67.3455   83.4564 C   0  0  0  0  0  0  0  0  0  0  0  0
    1.2560   67.2658   82.1539 C   0  0  0  0  0  0  0  0  0  0  0  0
    0.5335   66.1469   81.7436 C   0  0  0  0  0  0  0  0  0  0  0  0
    0.3673   65.0557   82.6105 C   0  0  0  0  0  0  0  0  0  0  0  0
   -0.3187   63.8527   82.0435 C   0  0  0  0  0  0  0  0  0  0  0  0
   -0.1026   63.5293   80.7996 N   0  0  0  0  0  0  0  0  0  0  0  0
   -0.7928   62.3963   80.3695 C   0  0  0  0  0  0  0  0  0  0  0  0
   -0.7375   61.8173   79.0864 C   0  0  0  0  0  0  0  0  0  0  0  0
   -1.5768   60.6941   79.1307 C   0  0  0  0  0  0  0  0  0  0  0  0
   -2.1393   60.6578   80.4062 N   0  0  0  0  0  0  0  0  0  0  0  0
   -3.1271   59.7061   80.8728 C   0  0  0  0  0  0  0  0  0  0  0  0
   -1.6245   61.6723   81.1715 C   0  0  0  0  0  0  0  0  0  0  0  0
   -1.8344   62.0120   82.5430 C   0  0  0  0  0  0  0  0  0  0  0  0
   -2.5100   61.3790   83.3470 O   0  0  0  0  0  0  0  0  0  0  0  0
   -1.1572   63.1540   82.8968 N   0  0  0  0  0  0  0  0  0  0  0  0
   -1.2289   63.4294   83.8675 H   0  0  0  0  0  0  0  0  0  0  0  0
   -1.8501   59.7169   78.0952 C   0  0  0  0  0  0  0  0  0  0  0  0
   -0.9374   58.9149   77.6457 N   0  0  0  0  0  0  0  0  0  0  0  0
   -1.4917   58.0892   76.6587 O   0  0  0  0  0  0  0  0  0  0  0  0
   -0.7257   57.5480   76.3891 H   0  0  0  0  0  0  0  0  0  0  0  0
    0.0953   62.3191   77.9447 C   0  0  0  0  0  0  0  0  0  0  0  0
   -0.5262   63.5027   77.1991 C   0  0  0  0  0  0  0  0  0  0  0  0
   -2.0018   63.3040   76.8793 C   0  0  0  0  0  0  0  0  0  0  0  0
    1.4902   68.6178   81.0193 S   0  0  0  0  0  0  0  0  0  0  0  0
    2.9078   68.7026   80.7434 O   0  0  0  0  0  0  0  0  0  0  0  0
    0.5281   68.4503   79.9497 O   0  0  0  0  0  0  0  0  0  0  0  0
    1.0294   69.9742   81.9149 N   0  0  0  0  0  0  0  0  0  0  0  0
   -0.2942   70.5969   81.6549 C   0  0  0  0  0  0  0  0  0  0  0  0
   -0.1900   72.0144   81.0509 C   0  0  0  0  0  0  0  0  0  0  0  0
    0.7917   72.8987   81.6900 N   0  0  0  0  0  0  0  0  0  0  0  0
    1.5462   72.2735   82.7750 C   0  0  0  0  0  0  0  0  0  0  0  0
    2.1065   70.9093   82.3332 C   0  0  0  0  0  0  0  0  0  0  0  0
    0.3835   74.2827   81.8908 C   0  0  0  0  0  0  0  0  0  0  0  0
    1.4165   75.2621   82.4592 C   0  0  0  0  0  0  0  0  0  0  0  0
    0.8208   76.5281   83.0631 C   0  0  0  0  0  0  0  0  0  0  0  0
   -0.5995   76.3967   83.0387 O   0  0  0  0  0  0  0  0  0  0  0  0
   -1.2330   77.1821   84.0324 N   0  0  0  0  0  0  0  0  0  0  0  0
   -2.3755   76.8032   84.2816 O   0  0  0  0  0  0  0  0  0  0  0  0
   -0.5869   78.1166   84.5091 O   0  0  0  0  0  0  0  0  0  0  0  0
    0.6887   64.0373   84.7391 O   0  0  0  0  0  0  0  0  0  0  0  0
    0.6529   64.2677   86.1522 C   0  0  0  0  0  0  0  0  0  0  0  0
   -0.1994   63.1656   88.2739 C   0  0  0  0  0  0  0  0  0  0  0  0
   -0.5171   63.5614   86.8390 C   0  0  0  0  0  0  0  0  0  0  0  0
 44 45  1  0  0  0
 45 43  1  0  0  0
 43 42  1  0  0  0
 42  1  1  0  0  0
  1  2  1  0  0  0
  2  3  2  0  0  0
  3  4  1  0  0  0
  4 26  1  0  0  0
 26 27  2  0  0  0
 26 28  2  0  0  0
 26 29  1  0  0  0
 29 30  1  0  0  0
 30 31  1  0  0  0
 31 32  1  0  0  0
 32 35  1  0  0  0
 35 36  1  0  0  0
 36 37  1  0  0  0
 37 38  1  0  0  0
 38 39  1  0  0  0
 39 40  2  0  0  0
 39 41  1  0  0  0
 32 33  1  0  0  0
 33 34  1  0  0  0
  4  5  2  0  0  0
  5  6  1  0  0  0
  6  7  1  0  0  0
  7  8  2  0  0  0
  8  9  1  0  0  0
  9 10  1  0  0  0
 10 23  1  0  0  0
 23 24  1  0  0  0
 24 25  1  0  0  0
 10 11  2  0  0  0
 11 19  1  0  0  0
 19 20  2  0  0  0
 20 21  1  0  0  0
 11 12  1  0  0  0
 12 13  1  0  0  0
 12 14  1  0  0  0
 14 15  1  0  0  0
 15 16  2  0  0  0
 15 17  1  0  0  0
  6  1  2  0  0  0
 17  7  1  0  0  0
 34 29  1  0  0  0
 14  9  2  0  0  0
 21 22  1  0  0  0
 17 18  1  0  0  0
M  CHG 1  39   1
M  CHG 1  41  -1
M  END
> <minimizedAffinity>
-8.86471

$$$$



 45 48  0  0  0  0  0  0  0  0999 V2000
   -0.7323   63.7394   86.1440 C   0  0  0  0  0  0  0  0  0  0  0  0
   -1.7773   62.8141   86.2694 C   0  0  0  0  0  0  0  0  0  0  0  0
   -2.1876   62.0493   85.1728 C   0  0  0  0  0  0  0  0  0  0  0  0
   -1.5368   62.1922   83.9478 C   0  0  0  0  0  0  0  0  0  0  0  0
   -0.4508   63.0571   83.8265 C   0  0  0  0  0  0  0  0  0  0  0  0
   -0.0565   63.8535   84.9129 C   0  0  0  0  0  0  0  0  0  0  0  0
    1.0416   64.8367   84.6546 C   0  0  0  0  0  0  0  0  0  0  0  0
    2.1868   64.6780   85.2563 N   0  0  0  0  0  0  0  0  0  0  0  0
    3.1390   65.6500   84.9506 C   0  0  0  0  0  0  0  0  0  0  0  0
    4.4568   65.7176   85.4440 C   0  0  0  0  0  0  0  0  0  0  0  0
    5.0375   66.8467   84.8474 C   0  0  0  0  0  0  0  0  0  0  0  0
    4.0521   67.4418   84.0604 N   0  0  0  0  0  0  0  0  0  0  0  0
    4.1888   68.6788   83.3185 C   0  0  0  0  0  0  0  0  0  0  0  0
    2.9098   66.6841   84.0919 C   0  0  0  0  0  0  0  0  0  0  0  0
    1.6637   66.8368   83.4105 C   0  0  0  0  0  0  0  0  0  0  0  0
    1.3991   67.6953   82.5760 O   0  0  0  0  0  0  0  0  0  0  0  0
    0.7575   65.8719   83.7788 N   0  0  0  0  0  0  0  0  0  0  0  0
   -0.1346   65.8963   83.3024 H   0  0  0  0  0  0  0  0  0  0  0  0
    6.3902   67.3526   84.9743 C   0  0  0  0  0  0  0  0  0  0  0  0
    7.4168   66.6930   84.5395 N   0  0  0  0  0  0  0  0  0  0  0  0
    8.5822   67.4264   84.7986 O   0  0  0  0  0  0  0  0  0  0  0  0
    9.2776   66.8387   84.4475 H   0  0  0  0  0  0  0  0  0  0  0  0
    5.0792   64.7342   86.3898 C   0  0  0  0  0  0  0  0  0  0  0  0
    4.6898   64.9527   87.8540 C   0  0  0  0  0  0  0  0  0  0  0  0
    5.8293   65.4985   88.7042 C   0  0  0  0  0  0  0  0  0  0  0  0
   -2.0443   61.2259   82.5411 S   0  0  0  0  0  0  0  0  0  0  0  0
   -1.4149   59.9292   82.6646 O   0  0  0  0  0  0  0  0  0  0  0  0
   -3.4831   61.3522   82.4318 O   0  0  0  0  0  0  0  0  0  0  0  0
   -1.3576   62.0398   81.2295 N   0  0  0  0  0  0  0  0  0  0  0  0
   -2.2338   62.8414   80.3367 C   0  0  0  0  0  0  0  0  0  0  0  0
   -2.3356   62.2638   78.9081 C   0  0  0  0  0  0  0  0  0  0  0  0
   -1.0633   61.8447   78.3081 N   0  0  0  0  0  0  0  0  0  0  0  0
    0.0955   62.0047   79.1849 C   0  0  0  0  0  0  0  0  0  0  0  0
   -0.1853   61.4032   80.5740 C   0  0  0  0  0  0  0  0  0  0  0  0
   -0.8697   62.1747   76.9023 C   0  0  0  0  0  0  0  0  0  0  0  0
   -1.2417   63.5870   76.4371 C   0  0  0  0  0  0  0  0  0  0  0  0
   -0.2831   64.6773   76.9002 C   0  0  0  0  0  0  0  0  0  0  0  0
   -0.8510   65.2970   78.0529 O   0  0  0  0  0  0  0  0  0  0  0  0
    0.1256   65.6423   79.0185 N   0  0  0  0  0  0  0  0  0  0  0  0
   -0.3608   65.8890   80.1201 O   0  0  0  0  0  0  0  0  0  0  0  0
    1.3017   65.6544   78.6515 O   0  0  0  0  0  0  0  0  0  0  0  0
   -0.3020   64.5195   87.1861 O   0  0  0  0  0  0  0  0  0  0  0  0
   -0.4942   64.0273   88.5173 C   0  0  0  0  0  0  0  0  0  0  0  0
    0.2564   61.7120   89.2376 C   0  0  0  0  0  0  0  0  0  0  0  0
    0.6675   63.1584   89.0021 C   0  0  0  0  0  0  0  0  0  0  0  0
 44 45  1  0  0  0
 45 43  1  0  0  0
 43 42  1  0  0  0
 42  1  1  0  0  0
  1  2  1  0  0  0
  2  3  2  0  0  0
  3  4  1  0  0  0
  4 26  1  0  0  0
 26 27  2  0  0  0
 26 28  2  0  0  0
 26 29  1  0  0  0
 29 30  1  0  0  0
 30 31  1  0  0  0
 31 32  1  0  0  0
 32 35  1  0  0  0
 35 36  1  0  0  0
 36 37  1  0  0  0
 37 38  1  0  0  0
 38 39  1  0  0  0
 39 40  2  0  0  0
 39 41  1  0  0  0
 32 33  1  0  0  0
 33 34  1  0  0  0
  4  5  2  0  0  0
  5  6  1  0  0  0
  6  7  1  0  0  0
  7  8  2  0  0  0
  8  9  1  0  0  0
  9 10  1  0  0  0
 10 23  1  0  0  0
 23 24  1  0  0  0
 24 25  1  0  0  0
 10 11  2  0  0  0
 11 19  1  0  0  0
 19 20  2  0  0  0
 20 21  1  0  0  0
 11 12  1  0  0  0
 12 13  1  0  0  0
 12 14  1  0  0  0
 14 15  1  0  0  0
 15 16  2  0  0  0
 15 17  1  0  0  0
  6  1  2  0  0  0
 17  7  1  0  0  0
 34 29  1  0  0  0
 14  9  2  0  0  0
 21 22  1  0  0  0
 17 18  1  0  0  0
M  CHG 1  39   1
M  CHG 1  41  -1
M  END
> <minimizedAffinity>
-8.55884

$$$$



 45 48  0  0  0  0  0  0  0  0999 V2000
    3.5457   67.5792   84.0968 C   0  0  0  0  0  0  0  0  0  0  0  0
    4.2579   68.6882   83.6205 C   0  0  0  0  0  0  0  0  0  0  0  0
    3.8099   69.3955   82.5003 C   0  0  0  0  0  0  0  0  0  0  0  0
    2.6314   69.0079   81.8636 C   0  0  0  0  0  0  0  0  0  0  0  0
    1.8759   67.9509   82.3679 C   0  0  0  0  0  0  0  0  0  0  0  0
    2.3377   67.2145   83.4698 C   0  0  0  0  0  0  0  0  0  0  0  0
    1.5205   66.0252   83.8663 C   0  0  0  0  0  0  0  0  0  0  0  0
    1.0723   65.2281   82.9376 N   0  0  0  0  0  0  0  0  0  0  0  0
    0.3193   64.1546   83.4124 C   0  0  0  0  0  0  0  0  0  0  0  0
   -0.2730   63.1378   82.6379 C   0  0  0  0  0  0  0  0  0  0  0  0
   -0.9059   62.2763   83.5462 C   0  0  0  0  0  0  0  0  0  0  0  0
   -0.7174   62.8174   84.8175 N   0  0  0  0  0  0  0  0  0  0  0  0
   -1.2654   62.2958   86.0532 C   0  0  0  0  0  0  0  0  0  0  0  0
    0.0674   63.9387   84.7350 C   0  0  0  0  0  0  0  0  0  0  0  0
    0.5866   64.7972   85.7517 C   0  0  0  0  0  0  0  0  0  0  0  0
    0.4639   64.6380   86.9613 O   0  0  0  0  0  0  0  0  0  0  0  0
    1.2882   65.8528   85.2211 N   0  0  0  0  0  0  0  0  0  0  0  0
    1.7193   66.4790   85.8884 H   0  0  0  0  0  0  0  0  0  0  0  0
   -1.6279   61.0462   83.2867 C   0  0  0  0  0  0  0  0  0  0  0  0
   -2.9167   60.9679   83.3914 N   0  0  0  0  0  0  0  0  0  0  0  0
   -3.3283   59.6651   83.0806 O   0  0  0  0  0  0  0  0  0  0  0  0
   -4.2949   59.7198   83.2034 H   0  0  0  0  0  0  0  0  0  0  0  0
   -0.1857   63.0240   81.1450 C   0  0  0  0  0  0  0  0  0  0  0  0
   -1.4882   63.3740   80.4209 C   0  0  0  0  0  0  0  0  0  0  0  0
   -2.1255   62.1817   79.7200 C   0  0  0  0  0  0  0  0  0  0  0  0
    2.0447   69.8975   80.4372 S   0  0  0  0  0  0  0  0  0  0  0  0
    3.1998   70.2101   79.6244 O   0  0  0  0  0  0  0  0  0  0  0  0
    0.9286   69.1496   79.8958 O   0  0  0  0  0  0  0  0  0  0  0  0
    1.4329   71.3324   81.0861 N   0  0  0  0  0  0  0  0  0  0  0  0
   -0.0175   71.4264   81.3937 C   0  0  0  0  0  0  0  0  0  0  0  0
   -0.7629   72.4420   80.5006 C   0  0  0  0  0  0  0  0  0  0  0  0
   -0.0872   73.7321   80.3179 N   0  0  0  0  0  0  0  0  0  0  0  0
    1.2114   73.8291   80.9824 C   0  0  0  0  0  0  0  0  0  0  0  0
    2.0812   72.6004   80.6602 C   0  0  0  0  0  0  0  0  0  0  0  0
   -0.9324   74.9181   80.3587 C   0  0  0  0  0  0  0  0  0  0  0  0
   -1.5740   75.3896   79.0490 C   0  0  0  0  0  0  0  0  0  0  0  0
   -2.9992   74.8964   78.8307 C   0  0  0  0  0  0  0  0  0  0  0  0
   -3.1442   74.5791   77.4474 O   0  0  0  0  0  0  0  0  0  0  0  0
   -3.9681   73.4470   77.2350 N   0  0  0  0  0  0  0  0  0  0  0  0
   -3.6374   72.4823   77.9212 O   0  0  0  0  0  0  0  0  0  0  0  0
   -4.8828   73.5609   76.4174 O   0  0  0  0  0  0  0  0  0  0  0  0
    3.9504   66.8474   85.1834 O   0  0  0  0  0  0  0  0  0  0  0  0
    5.3552   66.6365   85.3654 C   0  0  0  0  0  0  0  0  0  0  0  0
    5.5953   65.4208   87.5807 C   0  0  0  0  0  0  0  0  0  0  0  0
    5.6708   65.3131   86.0643 C   0  0  0  0  0  0  0  0  0  0  0  0
 44 45  1  0  0  0
 45 43  1  0  0  0
 43 42  1  0  0  0
 42  1  1  0  0  0
  1  2  1  0  0  0
  2  3  2  0  0  0
  3  4  1  0  0  0
  4 26  1  0  0  0
 26 27  2  0  0  0
 26 28  2  0  0  0
 26 29  1  0  0  0
 29 30  1  0  0  0
 30 31  1  0  0  0
 31 32  1  0  0  0
 32 35  1  0  0  0
 35 36  1  0  0  0
 36 37  1  0  0  0
 37 38  1  0  0  0
 38 39  1  0  0  0
 39 40  2  0  0  0
 39 41  1  0  0  0
 32 33  1  0  0  0
 33 34  1  0  0  0
  4  5  2  0  0  0
  5  6  1  0  0  0
  6  7  1  0  0  0
  7  8  2  0  0  0
  8  9  1  0  0  0
  9 10  1  0  0  0
 10 23  1  0  0  0
 23 24  1  0  0  0
 24 25  1  0  0  0
 10 11  2  0  0  0
 11 19  1  0  0  0
 19 20  2  0  0  0
 20 21  1  0  0  0
 11 12  1  0  0  0
 12 13  1  0  0  0
 12 14  1  0  0  0
 14 15  1  0  0  0
 15 16  2  0  0  0
 15 17  1  0  0  0
  6  1  2  0  0  0
 17  7  1  0  0  0
 34 29  1  0  0  0
 14  9  2  0  0  0
 21 22  1  0  0  0
 17 18  1  0  0  0
M  CHG 1  39   1
M  CHG 1  41  -1
M  END
> <minimizedAffinity>
-8.48238

$$$$
