


 26 29  0  0  0  0  0  0  0  0999 V2000
    2.1405   66.2651   84.3245 C   0  0  0  0  0  0  0  0  0  0  0  0
    1.4986   65.5310   85.2485 N   0  0  0  0  0  0  0  0  0  0  0  0
    0.4887   64.7481   84.8416 C   0  0  0  0  0  0  0  0  0  0  0  0
    0.0805   64.6412   83.5662 N   0  0  0  0  0  0  0  0  0  0  0  0
    0.7119   65.3803   82.6517 C   0  0  0  0  0  0  0  0  0  0  0  0
    0.2966   65.2931   81.3282 C   0  0  0  0  0  0  0  0  0  0  0  0
    0.8977   66.0408   80.3121 C   0  0  0  0  0  0  0  0  0  0  0  0
    1.9391   66.9048   80.6183 C   0  0  0  0  0  0  0  0  0  0  0  0
    2.3748   67.0078   81.9374 C   0  0  0  0  0  0  0  0  0  0  0  0
    1.7710   66.2391   82.9673 C   0  0  0  0  0  0  0  0  0  0  0  0
   -0.2156   63.9481   85.8653 C   0  0  0  0  0  0  0  0  0  0  0  0
   -1.1746   62.9783   85.5124 C   0  0  0  0  0  0  0  0  0  0  0  0
   -1.8425   62.2215   86.4812 C   0  0  0  0  0  0  0  0  0  0  0  0
   -1.5668   62.4177   87.8308 C   0  0  0  0  0  0  0  0  0  0  0  0
   -0.6251   63.3685   88.2117 C   0  0  0  0  0  0  0  0  0  0  0  0
    0.0410   64.1227   87.2400 C   0  0  0  0  0  0  0  0  0  0  0  0
    3.2384   67.0777   84.7227 N   0  0  0  0  0  0  0  0  0  0  0  0
    3.2208   67.9322   84.1764 H   0  0  0  0  0  0  0  0  0  0  0  0
    6.2611   65.7340   86.4963 C   0  0  0  0  0  0  0  0  0  0  0  0
    7.2521   66.0311   85.5629 C   0  0  0  0  0  0  0  0  0  0  0  0
    6.9135   66.6687   84.3691 C   0  0  0  0  0  0  0  0  0  0  0  0
    5.5829   66.9975   84.1006 C   0  0  0  0  0  0  0  0  0  0  0  0
    4.5635   66.6735   85.0065 C   0  0  0  0  0  0  0  0  0  0  0  0
    4.9305   66.0697   86.2163 C   0  0  0  0  0  0  0  0  0  0  0  0
    5.5607   65.4840   88.7557 C   0  0  0  0  0  0  0  0  0  0  0  0
    6.4561   65.1315   87.7097 O   0  0  0  0  0  0  0  0  0  0  0  0
 25 26  1  0  0  0
 26 19  1  0  0  0
 19 20  1  0  0  0
 20 21  2  0  0  0
 21 22  1  0  0  0
 22 23  2  0  0  0
 23 17  1  0  0  0
 17  1  1  0  0  0
  1  2  1  0  0  0
  2  3  2  0  0  0
  3 11  1  0  0  0
 11 12  2  0  0  0
 12 13  1  0  0  0
 13 14  2  0  0  0
 14 15  1  0  0  0
 15 16  2  0  0  0
  3  4  1  0  0  0
  4  5  2  0  0  0
  5  6  1  0  0  0
  6  7  2  0  0  0
  7  8  1  0  0  0
  8  9  2  0  0  0
  9 10  1  0  0  0
 23 24  1  0  0  0
 24 19  2  0  0  0
 10  1  2  0  0  0
 16 11  1  0  0  0
 10  5  1  0  0  0
 17 18  1  0  0  0
M  END
> <minimizedAffinity>
-10.31623

$$$$



 26 29  0  0  0  0  0  0  0  0999 V2000
    2.6103   67.2104   84.0277 C   0  0  0  0  0  0  0  0  0  0  0  0
    1.9036   66.1432   84.4353 N   0  0  0  0  0  0  0  0  0  0  0  0
    0.9413   65.6775   83.6257 C   0  0  0  0  0  0  0  0  0  0  0  0
    0.6417   66.2028   82.4260 N   0  0  0  0  0  0  0  0  0  0  0  0
    1.3372   67.2702   82.0282 C   0  0  0  0  0  0  0  0  0  0  0  0
    1.0343   67.8359   80.7953 C   0  0  0  0  0  0  0  0  0  0  0  0
    1.7079   68.9602   80.3103 C   0  0  0  0  0  0  0  0  0  0  0  0
    2.7089   69.5443   81.0731 C   0  0  0  0  0  0  0  0  0  0  0  0
    3.0322   68.9939   82.3113 C   0  0  0  0  0  0  0  0  0  0  0  0
    2.3551   67.8447   82.7981 C   0  0  0  0  0  0  0  0  0  0  0  0
    0.1649   64.5066   84.0842 C   0  0  0  0  0  0  0  0  0  0  0  0
    0.2002   64.0775   85.4256 C   0  0  0  0  0  0  0  0  0  0  0  0
   -0.5337   62.9684   85.8599 C   0  0  0  0  0  0  0  0  0  0  0  0
   -1.3225   62.2590   84.9596 C   0  0  0  0  0  0  0  0  0  0  0  0
   -1.3781   62.6573   83.6277 C   0  0  0  0  0  0  0  0  0  0  0  0
   -0.6434   63.7672   83.1976 C   0  0  0  0  0  0  0  0  0  0  0  0
    3.6606   67.7039   84.8508 N   0  0  0  0  0  0  0  0  0  0  0  0
    3.7569   68.7001   84.6865 H   0  0  0  0  0  0  0  0  0  0  0  0
    6.4329   65.8416   86.5640 C   0  0  0  0  0  0  0  0  0  0  0  0
    7.4738   66.0573   85.6632 C   0  0  0  0  0  0  0  0  0  0  0  0
    7.2503   66.8111   84.5107 C   0  0  0  0  0  0  0  0  0  0  0  0
    5.9835   67.3384   84.2502 C   0  0  0  0  0  0  0  0  0  0  0  0
    4.9113   67.1019   85.1215 C   0  0  0  0  0  0  0  0  0  0  0  0
    5.1672   66.3765   86.2925 C   0  0  0  0  0  0  0  0  0  0  0  0
    5.5627   65.4490   88.7427 C   0  0  0  0  0  0  0  0  0  0  0  0
    6.5186   65.1413   87.7368 O   0  0  0  0  0  0  0  0  0  0  0  0
 25 26  1  0  0  0
 26 19  1  0  0  0
 19 20  1  0  0  0
 20 21  2  0  0  0
 21 22  1  0  0  0
 22 23  2  0  0  0
 23 17  1  0  0  0
 17  1  1  0  0  0
  1  2  1  0  0  0
  2  3  2  0  0  0
  3 11  1  0  0  0
 11 12  2  0  0  0
 12 13  1  0  0  0
 13 14  2  0  0  0
 14 15  1  0  0  0
 15 16  2  0  0  0
  3  4  1  0  0  0
  4  5  2  0  0  0
  5  6  1  0  0  0
  6  7  2  0  0  0
  7  8  1  0  0  0
  8  9  2  0  0  0
  9 10  1  0  0  0
 23 24  1  0  0  0
 24 19  2  0  0  0
 10  1  2  0  0  0
 16 11  1  0  0  0
 10  5  1  0  0  0
 17 18  1  0  0  0
M  END
> <minimizedAffinity>
-9.94815

$$$$



 26 29  0  0  0  0  0  0  0  0999 V2000
   -0.2785   62.9438   83.6869 C   0  0  0  0  0  0  0  0  0  0  0  0
    0.2043   63.9301   82.9132 N   0  0  0  0  0  0  0  0  0  0  0  0
    0.6832   65.0278   83.5166 C   0  0  0  0  0  0  0  0  0  0  0  0
    0.7213   65.2040   84.8479 N   0  0  0  0  0  0  0  0  0  0  0  0
    0.2304   64.2278   85.6143 C   0  0  0  0  0  0  0  0  0  0  0  0
    0.2495   64.3959   86.9938 C   0  0  0  0  0  0  0  0  0  0  0  0
   -0.2541   63.4268   87.8655 C   0  0  0  0  0  0  0  0  0  0  0  0
   -0.7978   62.2574   87.3537 C   0  0  0  0  0  0  0  0  0  0  0  0
   -0.8261   62.0648   85.9743 C   0  0  0  0  0  0  0  0  0  0  0  0
   -0.3036   63.0450   85.0899 C   0  0  0  0  0  0  0  0  0  0  0  0
    1.2074   66.1104   82.6578 C   0  0  0  0  0  0  0  0  0  0  0  0
    1.7362   67.2957   83.2056 C   0  0  0  0  0  0  0  0  0  0  0  0
    2.2315   68.3213   82.3930 C   0  0  0  0  0  0  0  0  0  0  0  0
    2.2088   68.1857   81.0084 C   0  0  0  0  0  0  0  0  0  0  0  0
    1.6924   67.0272   80.4368 C   0  0  0  0  0  0  0  0  0  0  0  0
    1.1987   66.0038   81.2526 C   0  0  0  0  0  0  0  0  0  0  0  0
   -0.7605   61.7534   83.0749 N   0  0  0  0  0  0  0  0  0  0  0  0
   -0.0660   61.0244   83.1981 H   0  0  0  0  0  0  0  0  0  0  0  0
   -1.4812   61.0823   79.4529 C   0  0  0  0  0  0  0  0  0  0  0  0
   -2.8000   61.5250   79.3735 C   0  0  0  0  0  0  0  0  0  0  0  0
   -3.4302   62.0379   80.5076 C   0  0  0  0  0  0  0  0  0  0  0  0
   -2.7481   62.0963   81.7250 C   0  0  0  0  0  0  0  0  0  0  0  0
   -1.4345   61.6207   81.8387 C   0  0  0  0  0  0  0  0  0  0  0  0
   -0.8073   61.1469   80.6790 C   0  0  0  0  0  0  0  0  0  0  0  0
   -1.2675   59.4441   77.7415 C   0  0  0  0  0  0  0  0  0  0  0  0
   -0.7405   60.5772   78.4186 O   0  0  0  0  0  0  0  0  0  0  0  0
 25 26  1  0  0  0
 26 19  1  0  0  0
 19 20  1  0  0  0
 20 21  2  0  0  0
 21 22  1  0  0  0
 22 23  2  0  0  0
 23 17  1  0  0  0
 17  1  1  0  0  0
  1  2  1  0  0  0
  2  3  2  0  0  0
  3 11  1  0  0  0
 11 12  2  0  0  0
 12 13  1  0  0  0
 13 14  2  0  0  0
 14 15  1  0  0  0
 15 16  2  0  0  0
  3  4  1  0  0  0
  4  5  2  0  0  0
  5  6  1  0  0  0
  6  7  2  0  0  0
  7  8  1  0  0  0
  8  9  2  0  0  0
  9 10  1  0  0  0
 23 24  1  0  0  0
 24 19  2  0  0  0
 10  1  2  0  0  0
 16 11  1  0  0  0
 10  5  1  0  0  0
 17 18  1  0  0  0
M  END
> <minimizedAffinity>
-9.84202

$$$$



 26 29  0  0  0  0  0  0  0  0999 V2000
    0.1271   63.6535   83.2343 C   0  0  0  0  0  0  0  0  0  0  0  0
   -0.4629   63.1297   82.1470 N   0  0  0  0  0  0  0  0  0  0  0  0
   -0.4617   63.8541   81.0185 C   0  0  0  0  0  0  0  0  0  0  0  0
    0.0999   65.0686   80.8993 N   0  0  0  0  0  0  0  0  0  0  0  0
    0.6752   65.5921   81.9839 C   0  0  0  0  0  0  0  0  0  0  0  0
    1.2514   66.8530   81.8845 C   0  0  0  0  0  0  0  0  0  0  0  0
    1.8642   67.4757   82.9751 C   0  0  0  0  0  0  0  0  0  0  0  0
    1.9027   66.8308   84.2029 C   0  0  0  0  0  0  0  0  0  0  0  0
    1.3340   65.5652   84.3269 C   0  0  0  0  0  0  0  0  0  0  0  0
    0.7217   64.9283   83.2152 C   0  0  0  0  0  0  0  0  0  0  0  0
   -1.1178   63.2728   79.8285 C   0  0  0  0  0  0  0  0  0  0  0  0
   -0.7090   63.6090   78.5230 C   0  0  0  0  0  0  0  0  0  0  0  0
   -1.3304   63.0599   77.3962 C   0  0  0  0  0  0  0  0  0  0  0  0
   -2.3797   62.1589   77.5488 C   0  0  0  0  0  0  0  0  0  0  0  0
   -2.8070   61.8070   78.8252 C   0  0  0  0  0  0  0  0  0  0  0  0
   -2.1827   62.3577   79.9493 C   0  0  0  0  0  0  0  0  0  0  0  0
    0.1714   62.8922   84.4354 N   0  0  0  0  0  0  0  0  0  0  0  0
    0.4599   61.9470   84.2066 H   0  0  0  0  0  0  0  0  0  0  0  0
   -1.2811   63.0540   87.8926 C   0  0  0  0  0  0  0  0  0  0  0  0
   -2.6169   62.7695   87.6168 C   0  0  0  0  0  0  0  0  0  0  0  0
   -3.0188   62.5273   86.3030 C   0  0  0  0  0  0  0  0  0  0  0  0
   -2.0893   62.5827   85.2620 C   0  0  0  0  0  0  0  0  0  0  0  0
   -0.7481   62.9056   85.5098 C   0  0  0  0  0  0  0  0  0  0  0  0
   -0.3581   63.1057   86.8404 C   0  0  0  0  0  0  0  0  0  0  0  0
    0.5810   62.8473   89.3583 C   0  0  0  0  0  0  0  0  0  0  0  0
   -0.7502   63.2910   89.1317 O   0  0  0  0  0  0  0  0  0  0  0  0
 25 26  1  0  0  0
 26 19  1  0  0  0
 19 20  1  0  0  0
 20 21  2  0  0  0
 21 22  1  0  0  0
 22 23  2  0  0  0
 23 17  1  0  0  0
 17  1  1  0  0  0
  1  2  1  0  0  0
  2  3  2  0  0  0
  3 11  1  0  0  0
 11 12  2  0  0  0
 12 13  1  0  0  0
 13 14  2  0  0  0
 14 15  1  0  0  0
 15 16  2  0  0  0
  3  4  1  0  0  0
  4  5  2  0  0  0
  5  6  1  0  0  0
  6  7  2  0  0  0
  7  8  1  0  0  0
  8  9  2  0  0  0
  9 10  1  0  0  0
 23 24  1  0  0  0
 24 19  2  0  0  0
 10  1  2  0  0  0
 16 11  1  0  0  0
 10  5  1  0  0  0
 17 18  1  0  0  0
M  END
> <minimizedAffinity>
-9.80598

$$$$



 26 29  0  0  0  0  0  0  0  0999 V2000
   -0.2016   63.2888   84.0530 C   0  0  0  0  0  0  0  0  0  0  0  0
   -0.7864   62.7287   82.9812 N   0  0  0  0  0  0  0  0  0  0  0  0
   -1.9518   62.0899   83.1608 C   0  0  0  0  0  0  0  0  0  0  0  0
   -2.5805   61.9802   84.3429 N   0  0  0  0  0  0  0  0  0  0  0  0
   -1.9918   62.5273   85.4085 C   0  0  0  0  0  0  0  0  0  0  0  0
   -2.6202   62.4142   86.6430 C   0  0  0  0  0  0  0  0  0  0  0  0
   -2.0657   62.9496   87.8086 C   0  0  0  0  0  0  0  0  0  0  0  0
   -0.8486   63.6131   87.7493 C   0  0  0  0  0  0  0  0  0  0  0  0
   -0.2006   63.7414   86.5228 C   0  0  0  0  0  0  0  0  0  0  0  0
   -0.7704   63.2071   85.3371 C   0  0  0  0  0  0  0  0  0  0  0  0
   -2.5857   61.4718   81.9774 C   0  0  0  0  0  0  0  0  0  0  0  0
   -3.1501   62.2534   80.9503 C   0  0  0  0  0  0  0  0  0  0  0  0
   -3.7513   61.6687   79.8305 C   0  0  0  0  0  0  0  0  0  0  0  0
   -3.8033   60.2834   79.7111 C   0  0  0  0  0  0  0  0  0  0  0  0
   -3.2551   59.4838   80.7091 C   0  0  0  0  0  0  0  0  0  0  0  0
   -2.6543   60.0722   81.8268 C   0  0  0  0  0  0  0  0  0  0  0  0
    1.0175   64.0029   83.8854 N   0  0  0  0  0  0  0  0  0  0  0  0
    1.6346   63.7711   84.6563 H   0  0  0  0  0  0  0  0  0  0  0  0
    1.0959   67.1082   81.7784 C   0  0  0  0  0  0  0  0  0  0  0  0
    1.7070   67.9954   82.6621 C   0  0  0  0  0  0  0  0  0  0  0  0
    2.0850   67.5606   83.9326 C   0  0  0  0  0  0  0  0  0  0  0  0
    1.8405   66.2431   84.3265 C   0  0  0  0  0  0  0  0  0  0  0  0
    1.1918   65.3433   83.4695 C   0  0  0  0  0  0  0  0  0  0  0  0
    0.8569   65.7892   82.1843 C   0  0  0  0  0  0  0  0  0  0  0  0
   -0.7054   67.4011   80.2526 C   0  0  0  0  0  0  0  0  0  0  0  0
    0.6939   67.3959   80.5020 O   0  0  0  0  0  0  0  0  0  0  0  0
 25 26  1  0  0  0
 26 19  1  0  0  0
 19 20  1  0  0  0
 20 21  2  0  0  0
 21 22  1  0  0  0
 22 23  2  0  0  0
 23 17  1  0  0  0
 17  1  1  0  0  0
  1  2  1  0  0  0
  2  3  2  0  0  0
  3 11  1  0  0  0
 11 12  2  0  0  0
 12 13  1  0  0  0
 13 14  2  0  0  0
 14 15  1  0  0  0
 15 16  2  0  0  0
  3  4  1  0  0  0
  4  5  2  0  0  0
  5  6  1  0  0  0
  6  7  2  0  0  0
  7  8  1  0  0  0
  8  9  2  0  0  0
  9 10  1  0  0  0
 23 24  1  0  0  0
 24 19  2  0  0  0
 10  1  2  0  0  0
 16 11  1  0  0  0
 10  5  1  0  0  0
 17 18  1  0  0  0
M  END
> <minimizedAffinity>
-9.80178

$$$$



 26 29  0  0  0  0  0  0  0  0999 V2000
    0.9382   65.0380   84.4213 C   0  0  0  0  0  0  0  0  0  0  0  0
    0.8985   64.7659   83.1064 N   0  0  0  0  0  0  0  0  0  0  0  0
    0.2721   63.6474   82.7127 C   0  0  0  0  0  0  0  0  0  0  0  0
   -0.3284   62.7825   83.5471 N   0  0  0  0  0  0  0  0  0  0  0  0
   -0.2775   63.0487   84.8539 C   0  0  0  0  0  0  0  0  0  0  0  0
   -0.8823   62.1599   85.7347 C   0  0  0  0  0  0  0  0  0  0  0  0
   -0.8651   62.3599   87.1177 C   0  0  0  0  0  0  0  0  0  0  0  0
   -0.2246   63.4726   87.6437 C   0  0  0  0  0  0  0  0  0  0  0  0
    0.3869   64.3793   86.7808 C   0  0  0  0  0  0  0  0  0  0  0  0
    0.3590   64.1812   85.3750 C   0  0  0  0  0  0  0  0  0  0  0  0
    0.2378   63.3528   81.2649 C   0  0  0  0  0  0  0  0  0  0  0  0
    0.1580   64.3806   80.3047 C   0  0  0  0  0  0  0  0  0  0  0  0
    0.1243   64.1021   78.9341 C   0  0  0  0  0  0  0  0  0  0  0  0
    0.1690   62.7844   78.4895 C   0  0  0  0  0  0  0  0  0  0  0  0
    0.2475   61.7467   79.4130 C   0  0  0  0  0  0  0  0  0  0  0  0
    0.2816   62.0293   80.7825 C   0  0  0  0  0  0  0  0  0  0  0  0
    1.5655   66.2357   84.8643 N   0  0  0  0  0  0  0  0  0  0  0  0
    0.9095   67.0016   84.7551 H   0  0  0  0  0  0  0  0  0  0  0  0
    5.3166   66.3414   84.7838 C   0  0  0  0  0  0  0  0  0  0  0  0
    5.5206   67.6284   84.2905 C   0  0  0  0  0  0  0  0  0  0  0  0
    4.4256   68.4407   83.9945 C   0  0  0  0  0  0  0  0  0  0  0  0
    3.1260   67.9632   84.1781 C   0  0  0  0  0  0  0  0  0  0  0  0
    2.8955   66.6585   84.6358 C   0  0  0  0  0  0  0  0  0  0  0  0
    4.0087   65.8740   84.9648 C   0  0  0  0  0  0  0  0  0  0  0  0
    7.6336   65.8037   84.8065 C   0  0  0  0  0  0  0  0  0  0  0  0
    6.2958   65.4506   85.1318 O   0  0  0  0  0  0  0  0  0  0  0  0
 25 26  1  0  0  0
 26 19  1  0  0  0
 19 20  1  0  0  0
 20 21  2  0  0  0
 21 22  1  0  0  0
 22 23  2  0  0  0
 23 17  1  0  0  0
 17  1  1  0  0  0
  1  2  1  0  0  0
  2  3  2  0  0  0
  3 11  1  0  0  0
 11 12  2  0  0  0
 12 13  1  0  0  0
 13 14  2  0  0  0
 14 15  1  0  0  0
 15 16  2  0  0  0
  3  4  1  0  0  0
  4  5  2  0  0  0
  5  6  1  0  0  0
  6  7  2  0  0  0
  7  8  1  0  0  0
  8  9  2  0  0  0
  9 10  1  0  0  0
 23 24  1  0  0  0
 24 19  2  0  0  0
 10  1  2  0  0  0
 16 11  1  0  0  0
 10  5  1  0  0  0
 17 18  1  0  0  0
M  END
> <minimizedAffinity>
-9.79521

$$$$



 26 29  0  0  0  0  0  0  0  0999 V2000
    2.3205   66.2271   83.9005 C   0  0  0  0  0  0  0  0  0  0  0  0
    1.6898   67.2410   83.2850 N   0  0  0  0  0  0  0  0  0  0  0  0
    2.2806   68.4448   83.2867 C   0  0  0  0  0  0  0  0  0  0  0  0
    3.4693   68.7038   83.8566 N   0  0  0  0  0  0  0  0  0  0  0  0
    4.0886   67.6978   84.4777 C   0  0  0  0  0  0  0  0  0  0  0  0
    5.3138   67.9481   85.0841 C   0  0  0  0  0  0  0  0  0  0  0  0
    6.0216   66.9527   85.7633 C   0  0  0  0  0  0  0  0  0  0  0  0
    5.4962   65.6714   85.8479 C   0  0  0  0  0  0  0  0  0  0  0  0
    4.2706   65.3954   85.2460 C   0  0  0  0  0  0  0  0  0  0  0  0
    3.5577   66.4045   84.5462 C   0  0  0  0  0  0  0  0  0  0  0  0
    1.5774   69.5560   82.6122 C   0  0  0  0  0  0  0  0  0  0  0  0
    0.5567   69.3194   81.6704 C   0  0  0  0  0  0  0  0  0  0  0  0
   -0.1084   70.3709   81.0308 C   0  0  0  0  0  0  0  0  0  0  0  0
    0.2331   71.6888   81.3181 C   0  0  0  0  0  0  0  0  0  0  0  0
    1.2374   71.9554   82.2433 C   0  0  0  0  0  0  0  0  0  0  0  0
    1.8996   70.9014   82.8812 C   0  0  0  0  0  0  0  0  0  0  0  0
    1.7334   64.9312   83.8837 N   0  0  0  0  0  0  0  0  0  0  0  0
    1.5472   64.6750   82.9201 H   0  0  0  0  0  0  0  0  0  0  0  0
   -0.0994   63.9006   86.9929 C   0  0  0  0  0  0  0  0  0  0  0  0
   -1.1740   63.2121   86.4338 C   0  0  0  0  0  0  0  0  0  0  0  0
   -1.2789   63.0953   85.0476 C   0  0  0  0  0  0  0  0  0  0  0  0
   -0.3178   63.6779   84.2183 C   0  0  0  0  0  0  0  0  0  0  0  0
    0.7506   64.4087   84.7561 C   0  0  0  0  0  0  0  0  0  0  0  0
    0.8587   64.4796   86.1511 C   0  0  0  0  0  0  0  0  0  0  0  0
    0.3810   62.9027   89.0981 C   0  0  0  0  0  0  0  0  0  0  0  0
    0.1349   64.0732   88.3304 O   0  0  0  0  0  0  0  0  0  0  0  0
 25 26  1  0  0  0
 26 19  1  0  0  0
 19 20  1  0  0  0
 20 21  2  0  0  0
 21 22  1  0  0  0
 22 23  2  0  0  0
 23 17  1  0  0  0
 17  1  1  0  0  0
  1  2  1  0  0  0
  2  3  2  0  0  0
  3 11  1  0  0  0
 11 12  2  0  0  0
 12 13  1  0  0  0
 13 14  2  0  0  0
 14 15  1  0  0  0
 15 16  2  0  0  0
  3  4  1  0  0  0
  4  5  2  0  0  0
  5  6  1  0  0  0
  6  7  2  0  0  0
  7  8  1  0  0  0
  8  9  2  0  0  0
  9 10  1  0  0  0
 23 24  1  0  0  0
 24 19  2  0  0  0
 10  1  2  0  0  0
 16 11  1  0  0  0
 10  5  1  0  0  0
 17 18  1  0  0  0
M  END
> <minimizedAffinity>
-9.79180

$$$$



 26 29  0  0  0  0  0  0  0  0999 V2000
    0.2005   63.5753   82.0229 C   0  0  0  0  0  0  0  0  0  0  0  0
   -0.0094   63.1149   83.2673 N   0  0  0  0  0  0  0  0  0  0  0  0
    0.2079   63.9502   84.2936 C   0  0  0  0  0  0  0  0  0  0  0  0
    0.6139   65.2238   84.1600 N   0  0  0  0  0  0  0  0  0  0  0  0
    0.8332   65.6756   82.9234 C   0  0  0  0  0  0  0  0  0  0  0  0
    1.2654   66.9869   82.7644 C   0  0  0  0  0  0  0  0  0  0  0  0
    1.5275   67.5333   81.5052 C   0  0  0  0  0  0  0  0  0  0  0  0
    1.3606   66.7544   80.3693 C   0  0  0  0  0  0  0  0  0  0  0  0
    0.9260   65.4376   80.5028 C   0  0  0  0  0  0  0  0  0  0  0  0
    0.6489   64.8868   81.7819 C   0  0  0  0  0  0  0  0  0  0  0  0
   -0.0201   63.4340   85.6595 C   0  0  0  0  0  0  0  0  0  0  0  0
   -0.7877   62.2757   85.8917 C   0  0  0  0  0  0  0  0  0  0  0  0
   -1.0048   61.7874   87.1846 C   0  0  0  0  0  0  0  0  0  0  0  0
   -0.4582   62.4484   88.2801 C   0  0  0  0  0  0  0  0  0  0  0  0
    0.3044   63.5955   88.0838 C   0  0  0  0  0  0  0  0  0  0  0  0
    0.5197   64.0803   86.7896 C   0  0  0  0  0  0  0  0  0  0  0  0
   -0.0559   62.7218   80.9138 N   0  0  0  0  0  0  0  0  0  0  0  0
    0.3886   63.1188   80.0930 H   0  0  0  0  0  0  0  0  0  0  0  0
   -2.5291   60.3605   79.3661 C   0  0  0  0  0  0  0  0  0  0  0  0
   -3.7225   60.9006   79.8411 C   0  0  0  0  0  0  0  0  0  0  0  0
   -3.6968   62.0307   80.6587 C   0  0  0  0  0  0  0  0  0  0  0  0
   -2.4784   62.6140   81.0138 C   0  0  0  0  0  0  0  0  0  0  0  0
   -1.2634   62.0655   80.5806 C   0  0  0  0  0  0  0  0  0  0  0  0
   -1.3136   60.9549   79.7281 C   0  0  0  0  0  0  0  0  0  0  0  0
   -1.2650   59.2177   77.7065 C   0  0  0  0  0  0  0  0  0  0  0  0
   -2.4116   59.2719   78.5447 O   0  0  0  0  0  0  0  0  0  0  0  0
 25 26  1  0  0  0
 26 19  1  0  0  0
 19 20  1  0  0  0
 20 21  2  0  0  0
 21 22  1  0  0  0
 22 23  2  0  0  0
 23 17  1  0  0  0
 17  1  1  0  0  0
  1  2  1  0  0  0
  2  3  2  0  0  0
  3 11  1  0  0  0
 11 12  2  0  0  0
 12 13  1  0  0  0
 13 14  2  0  0  0
 14 15  1  0  0  0
 15 16  2  0  0  0
  3  4  1  0  0  0
  4  5  2  0  0  0
  5  6  1  0  0  0
  6  7  2  0  0  0
  7  8  1  0  0  0
  8  9  2  0  0  0
  9 10  1  0  0  0
 23 24  1  0  0  0
 24 19  2  0  0  0
 10  1  2  0  0  0
 16 11  1  0  0  0
 10  5  1  0  0  0
 17 18  1  0  0  0
M  END
> <minimizedAffinity>
-9.78709

$$$$



 26 29  0  0  0  0  0  0  0  0999 V2000
    1.0213   64.9033   83.4149 C   0  0  0  0  0  0  0  0  0  0  0  0
    2.0839   65.1213   84.2073 N   0  0  0  0  0  0  0  0  0  0  0  0
    2.8132   66.2264   83.9943 C   0  0  0  0  0  0  0  0  0  0  0  0
    2.5460   67.1380   83.0443 N   0  0  0  0  0  0  0  0  0  0  0  0
    1.4968   66.9135   82.2506 C   0  0  0  0  0  0  0  0  0  0  0  0
    1.2107   67.8387   81.2537 C   0  0  0  0  0  0  0  0  0  0  0  0
    0.1371   67.6728   80.3747 C   0  0  0  0  0  0  0  0  0  0  0  0
   -0.6747   66.5530   80.4843 C   0  0  0  0  0  0  0  0  0  0  0  0
   -0.4095   65.6126   81.4772 C   0  0  0  0  0  0  0  0  0  0  0  0
    0.6747   65.7878   82.3773 C   0  0  0  0  0  0  0  0  0  0  0  0
    3.9837   66.4558   84.8670 C   0  0  0  0  0  0  0  0  0  0  0  0
    4.3577   67.7516   85.2737 C   0  0  0  0  0  0  0  0  0  0  0  0
    5.4664   67.9694   86.0988 C   0  0  0  0  0  0  0  0  0  0  0  0
    6.2304   66.8926   86.5378 C   0  0  0  0  0  0  0  0  0  0  0  0
    5.8871   65.6004   86.1531 C   0  0  0  0  0  0  0  0  0  0  0  0
    4.7776   65.3867   85.3285 C   0  0  0  0  0  0  0  0  0  0  0  0
    0.2095   63.7571   83.6411 N   0  0  0  0  0  0  0  0  0  0  0  0
   -0.2668   63.5246   82.7763 H   0  0  0  0  0  0  0  0  0  0  0  0
   -0.9555   63.3237   87.1828 C   0  0  0  0  0  0  0  0  0  0  0  0
   -2.1966   62.7281   86.9673 C   0  0  0  0  0  0  0  0  0  0  0  0
   -2.6299   62.4766   85.6653 C   0  0  0  0  0  0  0  0  0  0  0  0
   -1.8299   62.8323   84.5771 C   0  0  0  0  0  0  0  0  0  0  0  0
   -0.5953   63.4681   84.7675 C   0  0  0  0  0  0  0  0  0  0  0  0
   -0.1617   63.6749   86.0836 C   0  0  0  0  0  0  0  0  0  0  0  0
    0.2720   62.5476   89.0667 C   0  0  0  0  0  0  0  0  0  0  0  0
   -0.4024   63.6077   88.4021 O   0  0  0  0  0  0  0  0  0  0  0  0
 25 26  1  0  0  0
 26 19  1  0  0  0
 19 20  1  0  0  0
 20 21  2  0  0  0
 21 22  1  0  0  0
 22 23  2  0  0  0
 23 17  1  0  0  0
 17  1  1  0  0  0
  1  2  1  0  0  0
  2  3  2  0  0  0
  3 11  1  0  0  0
 11 12  2  0  0  0
 12 13  1  0  0  0
 13 14  2  0  0  0
 14 15  1  0  0  0
 15 16  2  0  0  0
  3  4  1  0  0  0
  4  5  2  0  0  0
  5  6  1  0  0  0
  6  7  2  0  0  0
  7  8  1  0  0  0
  8  9  2  0  0  0
  9 10  1  0  0  0
 23 24  1  0  0  0
 24 19  2  0  0  0
 10  1  2  0  0  0
 16 11  1  0  0  0
 10  5  1  0  0  0
 17 18  1  0  0  0
M  END
> <minimizedAffinity>
-9.74739

$$$$
