


 32 34  0  0  0  0  0  0  0  0999 V2000
    0.1747   63.9467   82.3806 C   0  0  0  0  0  0  0  0  0  0  0  0
    0.7085   65.0372   83.0868 C   0  0  0  0  0  0  0  0  0  0  0  0
    0.9196   66.2660   82.4567 C   0  0  0  0  0  0  0  0  0  0  0  0
    0.5986   66.4092   81.1099 C   0  0  0  0  0  0  0  0  0  0  0  0
    0.0699   65.3391   80.3865 C   0  0  0  0  0  0  0  0  0  0  0  0
   -0.1512   64.0991   81.0120 C   0  0  0  0  0  0  0  0  0  0  0  0
   -0.7345   63.0107   80.1559 C   0  0  0  0  0  0  0  0  0  0  0  0
   -1.8013   62.3778   80.5294 N   0  0  0  0  0  0  0  0  0  0  0  0
   -2.3158   61.3905   79.7162 C   0  0  0  0  0  0  0  0  0  0  0  0
   -1.7621   61.0194   78.5427 C   0  0  0  0  0  0  0  0  0  0  0  0
   -0.5339   61.7451   78.1272 C   0  0  0  0  0  0  0  0  0  0  0  0
    0.0637   61.4943   77.0854 O   0  0  0  0  0  0  0  0  0  0  0  0
   -0.1072   62.7153   78.9783 N   0  0  0  0  0  0  0  0  0  0  0  0
    0.7322   63.2116   78.7101 H   0  0  0  0  0  0  0  0  0  0  0  0
   -3.5738   60.7612   80.2854 C   0  0  0  0  0  0  0  0  0  0  0  0
   -3.4675   60.5405   81.7893 C   0  0  0  0  0  0  0  0  0  0  0  0
   -2.2367   59.9402   77.6071 C   0  0  0  0  0  0  0  0  0  0  0  0
   -3.2030   60.4779   76.5612 C   0  0  0  0  0  0  0  0  0  0  0  0
    0.8516   67.9632   80.2914 S   0  0  0  0  0  0  0  0  0  0  0  0
   -0.4460   68.4265   79.8523 O   0  0  0  0  0  0  0  0  0  0  0  0
    1.9541   67.8145   79.3637 O   0  0  0  0  0  0  0  0  0  0  0  0
    1.3891   68.9713   81.5515 N   0  0  0  0  0  0  0  0  0  0  0  0
    2.8713   69.1783   81.6424 C   0  0  0  0  0  0  0  0  0  0  0  0
    3.2764   70.5773   81.1453 C   0  0  0  0  0  0  0  0  0  0  0  0
    2.6977   71.6670   81.9595 N   0  0  0  0  0  0  0  0  0  0  0  0
    2.6587   72.9113   81.1946 C   0  0  0  0  0  0  0  0  0  0  0  0
    1.3663   71.3021   82.4872 C   0  0  0  0  0  0  0  0  0  0  0  0
    0.6130   70.2496   81.6537 C   0  0  0  0  0  0  0  0  0  0  0  0
   -0.0546   62.7214   82.9545 O   0  0  0  0  0  0  0  0  0  0  0  0
   -0.0237   62.6182   84.3804 C   0  0  0  0  0  0  0  0  0  0  0  0
   -1.5437   62.3340   86.3723 C   0  0  0  0  0  0  0  0  0  0  0  0
   -1.4634   62.4639   84.8621 C   0  0  0  0  0  0  0  0  0  0  0  0
 31 32  1  0  0  0
 32 30  1  0  0  0
 30 29  1  0  0  0
 29  1  1  0  0  0
  1  2  1  0  0  0
  2  3  2  0  0  0
  3  4  1  0  0  0
  4 19  1  0  0  0
 19 20  2  0  0  0
 19 21  2  0  0  0
 19 22  1  0  0  0
 22 23  1  0  0  0
 23 24  1  0  0  0
 24 25  1  0  0  0
 25 26  1  0  0  0
 25 27  1  0  0  0
 27 28  1  0  0  0
  4  5  2  0  0  0
  5  6  1  0  0  0
  6  7  1  0  0  0
  7  8  2  0  0  0
  8  9  1  0  0  0
  9 15  1  0  0  0
 15 16  1  0  0  0
  9 10  2  0  0  0
 10 17  1  0  0  0
 17 18  1  0  0  0
 10 11  1  0  0  0
 11 12  2  0  0  0
 11 13  1  0  0  0
  6  1  2  0  0  0
 13  7  1  0  0  0
 28 22  1  0  0  0
 13 14  1  0  0  0
M  END
> <minimizedAffinity>
-1.58004

$$$$



 32 34  0  0  0  0  0  0  0  0999 V2000
    0.7919   64.8555   83.0779 C   0  0  0  0  0  0  0  0  0  0  0  0
    1.3863   66.0240   83.5822 C   0  0  0  0  0  0  0  0  0  0  0  0
    1.4802   67.1768   82.7987 C   0  0  0  0  0  0  0  0  0  0  0  0
    0.9798   67.1649   81.4999 C   0  0  0  0  0  0  0  0  0  0  0  0
    0.3877   66.0148   80.9758 C   0  0  0  0  0  0  0  0  0  0  0  0
    0.2835   64.8502   81.7573 C   0  0  0  0  0  0  0  0  0  0  0  0
   -0.3799   63.6665   81.1119 C   0  0  0  0  0  0  0  0  0  0  0  0
   -0.0341   63.2831   79.9238 N   0  0  0  0  0  0  0  0  0  0  0  0
   -0.6565   62.1876   79.3641 C   0  0  0  0  0  0  0  0  0  0  0  0
   -1.6332   61.4848   79.9750 C   0  0  0  0  0  0  0  0  0  0  0  0
   -2.0289   61.9377   81.3337 C   0  0  0  0  0  0  0  0  0  0  0  0
   -2.9079   61.3845   81.9871 O   0  0  0  0  0  0  0  0  0  0  0  0
   -1.3512   63.0126   81.8165 N   0  0  0  0  0  0  0  0  0  0  0  0
   -1.6164   63.3350   82.7376 H   0  0  0  0  0  0  0  0  0  0  0  0
   -0.1263   61.8576   77.9811 C   0  0  0  0  0  0  0  0  0  0  0  0
   -0.8607   62.6302   76.8924 C   0  0  0  0  0  0  0  0  0  0  0  0
   -2.3839   60.2983   79.4327 C   0  0  0  0  0  0  0  0  0  0  0  0
   -3.5458   60.7177   78.5434 C   0  0  0  0  0  0  0  0  0  0  0  0
    1.0819   68.6202   80.4897 S   0  0  0  0  0  0  0  0  0  0  0  0
   -0.2687   68.9608   80.1006 O   0  0  0  0  0  0  0  0  0  0  0  0
    2.1234   68.4173   79.5037 O   0  0  0  0  0  0  0  0  0  0  0  0
    1.6455   69.7982   81.5794 N   0  0  0  0  0  0  0  0  0  0  0  0
    3.1028   70.1379   81.4861 C   0  0  0  0  0  0  0  0  0  0  0  0
    3.3209   71.5051   80.8143 C   0  0  0  0  0  0  0  0  0  0  0  0
    2.7264   72.6227   81.5778 N   0  0  0  0  0  0  0  0  0  0  0  0
    2.4923   73.7708   80.7049 C   0  0  0  0  0  0  0  0  0  0  0  0
    1.4957   72.2051   82.2817 C   0  0  0  0  0  0  0  0  0  0  0  0
    0.7656   71.0102   81.6420 C   0  0  0  0  0  0  0  0  0  0  0  0
    0.6724   63.6997   83.8081 O   0  0  0  0  0  0  0  0  0  0  0  0
    0.2227   63.7906   85.1625 C   0  0  0  0  0  0  0  0  0  0  0  0
   -1.1196   62.5293   86.8846 C   0  0  0  0  0  0  0  0  0  0  0  0
   -0.6300   62.5578   85.4481 C   0  0  0  0  0  0  0  0  0  0  0  0
 31 32  1  0  0  0
 32 30  1  0  0  0
 30 29  1  0  0  0
 29  1  1  0  0  0
  1  2  1  0  0  0
  2  3  2  0  0  0
  3  4  1  0  0  0
  4 19  1  0  0  0
 19 20  2  0  0  0
 19 21  2  0  0  0
 19 22  1  0  0  0
 22 23  1  0  0  0
 23 24  1  0  0  0
 24 25  1  0  0  0
 25 26  1  0  0  0
 25 27  1  0  0  0
 27 28  1  0  0  0
  4  5  2  0  0  0
  5  6  1  0  0  0
  6  7  1  0  0  0
  7  8  2  0  0  0
  8  9  1  0  0  0
  9 15  1  0  0  0
 15 16  1  0  0  0
  9 10  2  0  0  0
 10 17  1  0  0  0
 17 18  1  0  0  0
 10 11  1  0  0  0
 11 12  2  0  0  0
 11 13  1  0  0  0
  6  1  2  0  0  0
 13  7  1  0  0  0
 28 22  1  0  0  0
 13 14  1  0  0  0
M  END
> <minimizedAffinity>
-1.43903

$$$$



 32 34  0  0  0  0  0  0  0  0999 V2000
    2.9412   67.9319   83.1600 C   0  0  0  0  0  0  0  0  0  0  0  0
    2.5281   66.6154   83.4229 C   0  0  0  0  0  0  0  0  0  0  0  0
    1.6460   65.9551   82.5640 C   0  0  0  0  0  0  0  0  0  0  0  0
    1.1688   66.6133   81.4343 C   0  0  0  0  0  0  0  0  0  0  0  0
    1.5625   67.9226   81.1537 C   0  0  0  0  0  0  0  0  0  0  0  0
    2.4537   68.5950   82.0088 C   0  0  0  0  0  0  0  0  0  0  0  0
    2.8291   69.9966   81.6184 C   0  0  0  0  0  0  0  0  0  0  0  0
    2.1275   71.0057   82.0276 N   0  0  0  0  0  0  0  0  0  0  0  0
    2.5044   72.2795   81.6585 C   0  0  0  0  0  0  0  0  0  0  0  0
    3.5654   72.5501   80.8696 C   0  0  0  0  0  0  0  0  0  0  0  0
    4.3586   71.3855   80.3982 C   0  0  0  0  0  0  0  0  0  0  0  0
    5.3405   71.5026   79.6718 O   0  0  0  0  0  0  0  0  0  0  0  0
    3.9284   70.1688   80.8250 N   0  0  0  0  0  0  0  0  0  0  0  0
    4.4558   69.3674   80.5049 H   0  0  0  0  0  0  0  0  0  0  0  0
    1.5934   73.3482   82.2334 C   0  0  0  0  0  0  0  0  0  0  0  0
    0.2670   73.4247   81.4874 C   0  0  0  0  0  0  0  0  0  0  0  0
    4.0336   73.8998   80.3959 C   0  0  0  0  0  0  0  0  0  0  0  0
    5.0054   74.5415   81.3762 C   0  0  0  0  0  0  0  0  0  0  0  0
    0.0533   65.7911   80.3258 S   0  0  0  0  0  0  0  0  0  0  0  0
    0.6693   65.8059   79.0174 O   0  0  0  0  0  0  0  0  0  0  0  0
   -1.2764   66.3240   80.5405 O   0  0  0  0  0  0  0  0  0  0  0  0
    0.0527   64.1925   80.9066 N   0  0  0  0  0  0  0  0  0  0  0  0
   -1.0316   63.8470   81.8827 C   0  0  0  0  0  0  0  0  0  0  0  0
   -2.1244   62.9832   81.2286 C   0  0  0  0  0  0  0  0  0  0  0  0
   -1.6190   61.6769   80.7559 N   0  0  0  0  0  0  0  0  0  0  0  0
   -2.4966   61.1330   79.7220 C   0  0  0  0  0  0  0  0  0  0  0  0
   -0.2176   61.7712   80.2961 C   0  0  0  0  0  0  0  0  0  0  0  0
    0.2078   63.1719   79.8197 C   0  0  0  0  0  0  0  0  0  0  0  0
    3.8080   68.6218   83.9699 O   0  0  0  0  0  0  0  0  0  0  0  0
    4.3681   67.9494   85.1009 C   0  0  0  0  0  0  0  0  0  0  0  0
    6.4454   66.7107   85.8144 C   0  0  0  0  0  0  0  0  0  0  0  0
    5.8142   67.6016   84.7600 C   0  0  0  0  0  0  0  0  0  0  0  0
 31 32  1  0  0  0
 32 30  1  0  0  0
 30 29  1  0  0  0
 29  1  1  0  0  0
  1  2  1  0  0  0
  2  3  2  0  0  0
  3  4  1  0  0  0
  4 19  1  0  0  0
 19 20  2  0  0  0
 19 21  2  0  0  0
 19 22  1  0  0  0
 22 23  1  0  0  0
 23 24  1  0  0  0
 24 25  1  0  0  0
 25 26  1  0  0  0
 25 27  1  0  0  0
 27 28  1  0  0  0
  4  5  2  0  0  0
  5  6  1  0  0  0
  6  7  1  0  0  0
  7  8  2  0  0  0
  8  9  1  0  0  0
  9 15  1  0  0  0
 15 16  1  0  0  0
  9 10  2  0  0  0
 10 17  1  0  0  0
 17 18  1  0  0  0
 10 11  1  0  0  0
 11 12  2  0  0  0
 11 13  1  0  0  0
  6  1  2  0  0  0
 13  7  1  0  0  0
 28 22  1  0  0  0
 13 14  1  0  0  0
M  END
> <minimizedAffinity>
-1.43346

$$$$



 32 34  0  0  0  0  0  0  0  0999 V2000
    1.4329   74.3092   81.5987 C   0  0  0  0  0  0  0  0  0  0  0  0
    0.3697   73.3970   81.4964 C   0  0  0  0  0  0  0  0  0  0  0  0
    0.6095   72.0347   81.3005 C   0  0  0  0  0  0  0  0  0  0  0  0
    1.9204   71.5772   81.2028 C   0  0  0  0  0  0  0  0  0  0  0  0
    2.9932   72.4649   81.2983 C   0  0  0  0  0  0  0  0  0  0  0  0
    2.7634   73.8376   81.5003 C   0  0  0  0  0  0  0  0  0  0  0  0
    3.9802   74.7133   81.6024 C   0  0  0  0  0  0  0  0  0  0  0  0
    4.6728   75.0060   80.5476 N   0  0  0  0  0  0  0  0  0  0  0  0
    5.7786   75.8194   80.6747 C   0  0  0  0  0  0  0  0  0  0  0  0
    6.2070   76.3268   81.8495 C   0  0  0  0  0  0  0  0  0  0  0  0
    5.4111   75.9782   83.0549 C   0  0  0  0  0  0  0  0  0  0  0  0
    5.7034   76.3731   84.1792 O   0  0  0  0  0  0  0  0  0  0  0  0
    4.3269   75.1881   82.8360 N   0  0  0  0  0  0  0  0  0  0  0  0
    3.7811   74.9378   83.6498 H   0  0  0  0  0  0  0  0  0  0  0  0
    6.4670   76.0813   79.3480 C   0  0  0  0  0  0  0  0  0  0  0  0
    6.6321   74.8048   78.5325 C   0  0  0  0  0  0  0  0  0  0  0  0
    7.4120   77.1971   82.0861 C   0  0  0  0  0  0  0  0  0  0  0  0
    8.6724   76.3746   82.3137 C   0  0  0  0  0  0  0  0  0  0  0  0
    2.2482   69.8500   80.9613 S   0  0  0  0  0  0  0  0  0  0  0  0
    3.6413   69.7313   80.5918 O   0  0  0  0  0  0  0  0  0  0  0  0
    1.1971   69.2993   80.1307 O   0  0  0  0  0  0  0  0  0  0  0  0
    2.0444   69.2046   82.5217 N   0  0  0  0  0  0  0  0  0  0  0  0
    1.4675   67.8225   82.5924 C   0  0  0  0  0  0  0  0  0  0  0  0
    2.5437   66.7800   82.9437 C   0  0  0  0  0  0  0  0  0  0  0  0
    3.1455   67.0008   84.2757 N   0  0  0  0  0  0  0  0  0  0  0  0
    4.4576   66.3630   84.3561 C   0  0  0  0  0  0  0  0  0  0  0  0
    3.2098   68.4388   84.6107 C   0  0  0  0  0  0  0  0  0  0  0  0
    3.2518   69.3794   83.3927 C   0  0  0  0  0  0  0  0  0  0  0  0
    1.2500   75.6551   81.7947 O   0  0  0  0  0  0  0  0  0  0  0  0
   -0.0794   76.1417   81.9969 C   0  0  0  0  0  0  0  0  0  0  0  0
   -0.1019   78.2287   83.4120 C   0  0  0  0  0  0  0  0  0  0  0  0
   -0.0153   77.6662   82.0048 C   0  0  0  0  0  0  0  0  0  0  0  0
 31 32  1  0  0  0
 32 30  1  0  0  0
 30 29  1  0  0  0
 29  1  1  0  0  0
  1  2  1  0  0  0
  2  3  2  0  0  0
  3  4  1  0  0  0
  4 19  1  0  0  0
 19 20  2  0  0  0
 19 21  2  0  0  0
 19 22  1  0  0  0
 22 23  1  0  0  0
 23 24  1  0  0  0
 24 25  1  0  0  0
 25 26  1  0  0  0
 25 27  1  0  0  0
 27 28  1  0  0  0
  4  5  2  0  0  0
  5  6  1  0  0  0
  6  7  1  0  0  0
  7  8  2  0  0  0
  8  9  1  0  0  0
  9 15  1  0  0  0
 15 16  1  0  0  0
  9 10  2  0  0  0
 10 17  1  0  0  0
 17 18  1  0  0  0
 10 11  1  0  0  0
 11 12  2  0  0  0
 11 13  1  0  0  0
  6  1  2  0  0  0
 13  7  1  0  0  0
 28 22  1  0  0  0
 13 14  1  0  0  0
M  END
> <minimizedAffinity>
-1.38973

$$$$



 32 34  0  0  0  0  0  0  0  0999 V2000
    0.9122   65.1763   83.0635 C   0  0  0  0  0  0  0  0  0  0  0  0
    1.5173   66.2554   83.7286 C   0  0  0  0  0  0  0  0  0  0  0  0
    1.8195   67.4383   83.0495 C   0  0  0  0  0  0  0  0  0  0  0  0
    1.5188   67.5464   81.6949 C   0  0  0  0  0  0  0  0  0  0  0  0
    0.9204   66.4864   81.0118 C   0  0  0  0  0  0  0  0  0  0  0  0
    0.6074   65.2929   81.6866 C   0  0  0  0  0  0  0  0  0  0  0  0
   -0.0459   64.2130   80.8712 C   0  0  0  0  0  0  0  0  0  0  0  0
   -1.0941   63.5945   81.3145 N   0  0  0  0  0  0  0  0  0  0  0  0
   -1.6745   62.6147   80.5373 C   0  0  0  0  0  0  0  0  0  0  0  0
   -1.2046   62.2369   79.3300 C   0  0  0  0  0  0  0  0  0  0  0  0
    0.0032   62.9461   78.8341 C   0  0  0  0  0  0  0  0  0  0  0  0
    0.5273   62.6878   77.7551 O   0  0  0  0  0  0  0  0  0  0  0  0
    0.4983   63.9099   79.6548 N   0  0  0  0  0  0  0  0  0  0  0  0
    1.3248   64.3950   79.3316 H   0  0  0  0  0  0  0  0  0  0  0  0
   -2.9006   62.0021   81.1885 C   0  0  0  0  0  0  0  0  0  0  0  0
   -2.5464   60.7830   82.0311 C   0  0  0  0  0  0  0  0  0  0  0  0
   -1.7545   61.1647   78.4280 C   0  0  0  0  0  0  0  0  0  0  0  0
   -2.7681   61.7190   77.4371 C   0  0  0  0  0  0  0  0  0  0  0  0
    1.8872   69.0423   80.8144 S   0  0  0  0  0  0  0  0  0  0  0  0
    1.2655   68.9317   79.5134 O   0  0  0  0  0  0  0  0  0  0  0  0
    3.3029   69.3154   80.9541 O   0  0  0  0  0  0  0  0  0  0  0  0
    1.0575   70.2242   81.7130 N   0  0  0  0  0  0  0  0  0  0  0  0
    1.9119   71.1953   82.4712 C   0  0  0  0  0  0  0  0  0  0  0  0
    1.9350   72.5757   81.7914 C   0  0  0  0  0  0  0  0  0  0  0  0
    0.6026   73.2139   81.7397 N   0  0  0  0  0  0  0  0  0  0  0  0
    0.5570   74.2170   80.6782 C   0  0  0  0  0  0  0  0  0  0  0  0
   -0.4742   72.2115   81.5979 C   0  0  0  0  0  0  0  0  0  0  0  0
   -0.0379   70.8913   80.9370 C   0  0  0  0  0  0  0  0  0  0  0  0
    0.5924   63.9958   83.6860 O   0  0  0  0  0  0  0  0  0  0  0  0
    0.2486   64.0265   85.0737 C   0  0  0  0  0  0  0  0  0  0  0  0
   -0.9684   62.6868   86.8295 C   0  0  0  0  0  0  0  0  0  0  0  0
   -0.4406   62.7064   85.4064 C   0  0  0  0  0  0  0  0  0  0  0  0
 31 32  1  0  0  0
 32 30  1  0  0  0
 30 29  1  0  0  0
 29  1  1  0  0  0
  1  2  1  0  0  0
  2  3  2  0  0  0
  3  4  1  0  0  0
  4 19  1  0  0  0
 19 20  2  0  0  0
 19 21  2  0  0  0
 19 22  1  0  0  0
 22 23  1  0  0  0
 23 24  1  0  0  0
 24 25  1  0  0  0
 25 26  1  0  0  0
 25 27  1  0  0  0
 27 28  1  0  0  0
  4  5  2  0  0  0
  5  6  1  0  0  0
  6  7  1  0  0  0
  7  8  2  0  0  0
  8  9  1  0  0  0
  9 15  1  0  0  0
 15 16  1  0  0  0
  9 10  2  0  0  0
 10 17  1  0  0  0
 17 18  1  0  0  0
 10 11  1  0  0  0
 11 12  2  0  0  0
 11 13  1  0  0  0
  6  1  2  0  0  0
 13  7  1  0  0  0
 28 22  1  0  0  0
 13 14  1  0  0  0
M  END
> <minimizedAffinity>
-1.38436

$$$$



 32 34  0  0  0  0  0  0  0  0999 V2000
    1.1675   74.2124   81.5907 C   0  0  0  0  0  0  0  0  0  0  0  0
    0.1455   73.2575   81.4618 C   0  0  0  0  0  0  0  0  0  0  0  0
    0.4458   71.9058   81.2765 C   0  0  0  0  0  0  0  0  0  0  0  0
    1.7764   71.5017   81.2163 C   0  0  0  0  0  0  0  0  0  0  0  0
    2.8091   72.4326   81.3387 C   0  0  0  0  0  0  0  0  0  0  0  0
    2.5183   73.7951   81.5304 C   0  0  0  0  0  0  0  0  0  0  0  0
    3.6952   74.7198   81.6635 C   0  0  0  0  0  0  0  0  0  0  0  0
    3.9015   75.3709   82.7641 N   0  0  0  0  0  0  0  0  0  0  0  0
    4.9958   76.2044   82.8564 C   0  0  0  0  0  0  0  0  0  0  0  0
    5.8739   76.4053   81.8515 C   0  0  0  0  0  0  0  0  0  0  0  0
    5.6239   75.6609   80.5901 C   0  0  0  0  0  0  0  0  0  0  0  0
    6.3473   75.7647   79.6046 O   0  0  0  0  0  0  0  0  0  0  0  0
    4.5348   74.8475   80.5928 N   0  0  0  0  0  0  0  0  0  0  0  0
    4.3497   74.3407   79.7373 H   0  0  0  0  0  0  0  0  0  0  0  0
    5.1057   76.8767   84.2123 C   0  0  0  0  0  0  0  0  0  0  0  0
    3.7459   77.0271   84.8831 C   0  0  0  0  0  0  0  0  0  0  0  0
    7.0755   77.3118   81.8530 C   0  0  0  0  0  0  0  0  0  0  0  0
    8.3218   76.6043   82.3658 C   0  0  0  0  0  0  0  0  0  0  0  0
    2.1806   69.7889   80.9890 S   0  0  0  0  0  0  0  0  0  0  0  0
    3.5755   69.7298   80.6117 O   0  0  0  0  0  0  0  0  0  0  0  0
    1.1506   69.1832   80.1703 O   0  0  0  0  0  0  0  0  0  0  0  0
    2.0156   69.1501   82.5566 N   0  0  0  0  0  0  0  0  0  0  0  0
    1.4745   67.7546   82.6454 C   0  0  0  0  0  0  0  0  0  0  0  0
    2.5812   66.7418   82.9880 C   0  0  0  0  0  0  0  0  0  0  0  0
    3.1966   66.9871   84.3096 N   0  0  0  0  0  0  0  0  0  0  0  0
    4.5252   66.3827   84.3750 C   0  0  0  0  0  0  0  0  0  0  0  0
    3.2299   68.4288   84.6336 C   0  0  0  0  0  0  0  0  0  0  0  0
    3.2308   69.3611   83.4085 C   0  0  0  0  0  0  0  0  0  0  0  0
    0.9248   75.5501   81.7777 O   0  0  0  0  0  0  0  0  0  0  0  0
   -0.1354   76.1619   81.0384 C   0  0  0  0  0  0  0  0  0  0  0  0
   -1.0424   78.4248   80.3939 C   0  0  0  0  0  0  0  0  0  0  0  0
    0.0426   77.6738   81.1440 C   0  0  0  0  0  0  0  0  0  0  0  0
 31 32  1  0  0  0
 32 30  1  0  0  0
 30 29  1  0  0  0
 29  1  1  0  0  0
  1  2  1  0  0  0
  2  3  2  0  0  0
  3  4  1  0  0  0
  4 19  1  0  0  0
 19 20  2  0  0  0
 19 21  2  0  0  0
 19 22  1  0  0  0
 22 23  1  0  0  0
 23 24  1  0  0  0
 24 25  1  0  0  0
 25 26  1  0  0  0
 25 27  1  0  0  0
 27 28  1  0  0  0
  4  5  2  0  0  0
  5  6  1  0  0  0
  6  7  1  0  0  0
  7  8  2  0  0  0
  8  9  1  0  0  0
  9 15  1  0  0  0
 15 16  1  0  0  0
  9 10  2  0  0  0
 10 17  1  0  0  0
 17 18  1  0  0  0
 10 11  1  0  0  0
 11 12  2  0  0  0
 11 13  1  0  0  0
  6  1  2  0  0  0
 13  7  1  0  0  0
 28 22  1  0  0  0
 13 14  1  0  0  0
M  END
> <minimizedAffinity>
-1.35119

$$$$



 32 34  0  0  0  0  0  0  0  0999 V2000
    0.9110   66.0473   82.3196 C   0  0  0  0  0  0  0  0  0  0  0  0
    0.5871   64.6819   82.2591 C   0  0  0  0  0  0  0  0  0  0  0  0
    0.2694   64.0731   81.0425 C   0  0  0  0  0  0  0  0  0  0  0  0
    0.2716   64.8320   79.8757 C   0  0  0  0  0  0  0  0  0  0  0  0
    0.5871   66.1911   79.9112 C   0  0  0  0  0  0  0  0  0  0  0  0
    0.9132   66.8131   81.1296 C   0  0  0  0  0  0  0  0  0  0  0  0
    1.2504   68.2760   81.0667 C   0  0  0  0  0  0  0  0  0  0  0  0
    0.3436   69.1724   81.2952 N   0  0  0  0  0  0  0  0  0  0  0  0
    0.6884   70.5061   81.2382 C   0  0  0  0  0  0  0  0  0  0  0  0
    1.9268   70.9497   80.9370 C   0  0  0  0  0  0  0  0  0  0  0  0
    2.9577   69.9140   80.6678 C   0  0  0  0  0  0  0  0  0  0  0  0
    4.1169   70.1923   80.3775 O   0  0  0  0  0  0  0  0  0  0  0  0
    2.5365   68.6253   80.7646 N   0  0  0  0  0  0  0  0  0  0  0  0
    3.2273   67.9110   80.5764 H   0  0  0  0  0  0  0  0  0  0  0  0
   -0.4786   71.4251   81.5481 C   0  0  0  0  0  0  0  0  0  0  0  0
   -1.1770   71.9028   80.2809 C   0  0  0  0  0  0  0  0  0  0  0  0
    2.3857   72.3789   80.8261 C   0  0  0  0  0  0  0  0  0  0  0  0
    2.8282   72.9406   82.1699 C   0  0  0  0  0  0  0  0  0  0  0  0
   -0.1218   64.0776   78.3185 S   0  0  0  0  0  0  0  0  0  0  0  0
    1.0948   63.4742   77.8212 O   0  0  0  0  0  0  0  0  0  0  0  0
   -0.8696   65.0324   77.5265 O   0  0  0  0  0  0  0  0  0  0  0  0
   -1.2001   62.8386   78.7601 N   0  0  0  0  0  0  0  0  0  0  0  0
   -2.4480   62.7271   77.9365 C   0  0  0  0  0  0  0  0  0  0  0  0
   -2.3859   61.5236   76.9795 C   0  0  0  0  0  0  0  0  0  0  0  0
   -2.2907   60.2296   77.6878 N   0  0  0  0  0  0  0  0  0  0  0  0
   -1.7249   59.2071   76.8108 C   0  0  0  0  0  0  0  0  0  0  0  0
   -1.5310   60.3560   78.9493 C   0  0  0  0  0  0  0  0  0  0  0  0
   -0.5227   61.5190   78.9765 C   0  0  0  0  0  0  0  0  0  0  0  0
    1.2335   66.6905   83.4882 O   0  0  0  0  0  0  0  0  0  0  0  0
    2.3312   66.1960   84.2598 C   0  0  0  0  0  0  0  0  0  0  0  0
    4.5743   66.8961   85.1749 C   0  0  0  0  0  0  0  0  0  0  0  0
    3.3720   67.3086   84.3452 C   0  0  0  0  0  0  0  0  0  0  0  0
 31 32  1  0  0  0
 32 30  1  0  0  0
 30 29  1  0  0  0
 29  1  1  0  0  0
  1  2  1  0  0  0
  2  3  2  0  0  0
  3  4  1  0  0  0
  4 19  1  0  0  0
 19 20  2  0  0  0
 19 21  2  0  0  0
 19 22  1  0  0  0
 22 23  1  0  0  0
 23 24  1  0  0  0
 24 25  1  0  0  0
 25 26  1  0  0  0
 25 27  1  0  0  0
 27 28  1  0  0  0
  4  5  2  0  0  0
  5  6  1  0  0  0
  6  7  1  0  0  0
  7  8  2  0  0  0
  8  9  1  0  0  0
  9 15  1  0  0  0
 15 16  1  0  0  0
  9 10  2  0  0  0
 10 17  1  0  0  0
 17 18  1  0  0  0
 10 11  1  0  0  0
 11 12  2  0  0  0
 11 13  1  0  0  0
  6  1  2  0  0  0
 13  7  1  0  0  0
 28 22  1  0  0  0
 13 14  1  0  0  0
M  END
> <minimizedAffinity>
-1.34956

$$$$



 32 34  0  0  0  0  0  0  0  0999 V2000
    1.6091   74.6554   81.6128 C   0  0  0  0  0  0  0  0  0  0  0  0
    0.5825   73.6972   81.5837 C   0  0  0  0  0  0  0  0  0  0  0  0
    0.8735   72.3320   81.6412 C   0  0  0  0  0  0  0  0  0  0  0  0
    2.1995   71.9172   81.7255 C   0  0  0  0  0  0  0  0  0  0  0  0
    3.2368   72.8506   81.7526 C   0  0  0  0  0  0  0  0  0  0  0  0
    2.9551   74.2274   81.7003 C   0  0  0  0  0  0  0  0  0  0  0  0
    4.1357   75.1558   81.7473 C   0  0  0  0  0  0  0  0  0  0  0  0
    4.8182   75.4100   80.6761 N   0  0  0  0  0  0  0  0  0  0  0  0
    5.8903   76.2734   80.7520 C   0  0  0  0  0  0  0  0  0  0  0  0
    6.2957   76.8694   81.8929 C   0  0  0  0  0  0  0  0  0  0  0  0
    5.5120   76.5646   83.1179 C   0  0  0  0  0  0  0  0  0  0  0  0
    5.7860   77.0398   84.2154 O   0  0  0  0  0  0  0  0  0  0  0  0
    4.4607   75.7197   82.9490 N   0  0  0  0  0  0  0  0  0  0  0  0
    3.9237   75.4986   83.7770 H   0  0  0  0  0  0  0  0  0  0  0  0
    6.5704   76.4799   79.4112 C   0  0  0  0  0  0  0  0  0  0  0  0
    6.8823   75.1567   78.7232 C   0  0  0  0  0  0  0  0  0  0  0  0
    7.4645   77.8002   82.0745 C   0  0  0  0  0  0  0  0  0  0  0  0
    8.7487   77.0466   82.3901 C   0  0  0  0  0  0  0  0  0  0  0  0
    2.5915   70.1885   81.8069 S   0  0  0  0  0  0  0  0  0  0  0  0
    2.2104   69.7297   83.1243 O   0  0  0  0  0  0  0  0  0  0  0  0
    3.9365   70.0029   81.3024 O   0  0  0  0  0  0  0  0  0  0  0  0
    1.5297   69.5058   80.6669 N   0  0  0  0  0  0  0  0  0  0  0  0
    2.1534   68.6067   79.6419 C   0  0  0  0  0  0  0  0  0  0  0  0
    1.8505   67.1261   79.9322 C   0  0  0  0  0  0  0  0  0  0  0  0
    0.4072   66.8120   79.8739 N   0  0  0  0  0  0  0  0  0  0  0  0
    0.1169   65.5986   80.6344 C   0  0  0  0  0  0  0  0  0  0  0  0
   -0.4156   67.9546   80.3232 C   0  0  0  0  0  0  0  0  0  0  0  0
    0.2985   68.9183   81.2882 C   0  0  0  0  0  0  0  0  0  0  0  0
    1.3753   76.0067   81.5627 O   0  0  0  0  0  0  0  0  0  0  0  0
    0.0407   76.4772   81.7680 C   0  0  0  0  0  0  0  0  0  0  0  0
   -0.4274   78.2196   83.5297 C   0  0  0  0  0  0  0  0  0  0  0  0
    0.1256   77.9543   82.1412 C   0  0  0  0  0  0  0  0  0  0  0  0
 31 32  1  0  0  0
 32 30  1  0  0  0
 30 29  1  0  0  0
 29  1  1  0  0  0
  1  2  1  0  0  0
  2  3  2  0  0  0
  3  4  1  0  0  0
  4 19  1  0  0  0
 19 20  2  0  0  0
 19 21  2  0  0  0
 19 22  1  0  0  0
 22 23  1  0  0  0
 23 24  1  0  0  0
 24 25  1  0  0  0
 25 26  1  0  0  0
 25 27  1  0  0  0
 27 28  1  0  0  0
  4  5  2  0  0  0
  5  6  1  0  0  0
  6  7  1  0  0  0
  7  8  2  0  0  0
  8  9  1  0  0  0
  9 15  1  0  0  0
 15 16  1  0  0  0
  9 10  2  0  0  0
 10 17  1  0  0  0
 17 18  1  0  0  0
 10 11  1  0  0  0
 11 12  2  0  0  0
 11 13  1  0  0  0
  6  1  2  0  0  0
 13  7  1  0  0  0
 28 22  1  0  0  0
 13 14  1  0  0  0
M  END
> <minimizedAffinity>
-1.29274

$$$$



 32 34  0  0  0  0  0  0  0  0999 V2000
    1.6787   74.5425   81.5249 C   0  0  0  0  0  0  0  0  0  0  0  0
    0.6339   73.6066   81.4504 C   0  0  0  0  0  0  0  0  0  0  0  0
    0.8904   72.2363   81.5419 C   0  0  0  0  0  0  0  0  0  0  0  0
    2.1998   71.7941   81.7062 C   0  0  0  0  0  0  0  0  0  0  0  0
    3.2548   72.7049   81.7798 C   0  0  0  0  0  0  0  0  0  0  0  0
    3.0076   74.0866   81.6937 C   0  0  0  0  0  0  0  0  0  0  0  0
    4.2043   74.9896   81.7952 C   0  0  0  0  0  0  0  0  0  0  0  0
    4.4301   75.6667   82.8762 N   0  0  0  0  0  0  0  0  0  0  0  0
    5.5422   76.4791   82.9398 C   0  0  0  0  0  0  0  0  0  0  0  0
    6.4189   76.6334   81.9256 C   0  0  0  0  0  0  0  0  0  0  0  0
    6.1465   75.8595   80.6868 C   0  0  0  0  0  0  0  0  0  0  0  0
    6.8666   75.9205   79.6952 O   0  0  0  0  0  0  0  0  0  0  0  0
    5.0406   75.0697   80.7174 N   0  0  0  0  0  0  0  0  0  0  0  0
    4.8404   74.5433   79.8774 H   0  0  0  0  0  0  0  0  0  0  0  0
    5.6734   77.1865   84.2759 C   0  0  0  0  0  0  0  0  0  0  0  0
    4.3295   77.6942   84.7837 C   0  0  0  0  0  0  0  0  0  0  0  0
    7.6391   77.5141   81.8959 C   0  0  0  0  0  0  0  0  0  0  0  0
    8.8703   76.7991   82.4344 C   0  0  0  0  0  0  0  0  0  0  0  0
    2.5475   70.0585   81.8321 S   0  0  0  0  0  0  0  0  0  0  0  0
    2.1234   69.6363   83.1486 O   0  0  0  0  0  0  0  0  0  0  0  0
    3.8995   69.8305   81.3649 O   0  0  0  0  0  0  0  0  0  0  0  0
    1.4974   69.3779   80.6801 N   0  0  0  0  0  0  0  0  0  0  0  0
    2.1235   68.4418   79.6903 C   0  0  0  0  0  0  0  0  0  0  0  0
    1.7761   66.9757   80.0037 C   0  0  0  0  0  0  0  0  0  0  0  0
    0.3272   66.6962   79.9154 N   0  0  0  0  0  0  0  0  0  0  0  0
   -0.0125   65.5071   80.6936 C   0  0  0  0  0  0  0  0  0  0  0  0
   -0.4773   67.8683   80.3197 C   0  0  0  0  0  0  0  0  0  0  0  0
    0.2367   68.8346   81.2821 C   0  0  0  0  0  0  0  0  0  0  0  0
    1.4785   75.8978   81.4442 O   0  0  0  0  0  0  0  0  0  0  0  0
    0.7093   76.4110   80.3535 C   0  0  0  0  0  0  0  0  0  0  0  0
   -0.1187   78.3150   81.7847 C   0  0  0  0  0  0  0  0  0  0  0  0
    0.6266   77.9255   80.5210 C   0  0  0  0  0  0  0  0  0  0  0  0
 31 32  1  0  0  0
 32 30  1  0  0  0
 30 29  1  0  0  0
 29  1  1  0  0  0
  1  2  1  0  0  0
  2  3  2  0  0  0
  3  4  1  0  0  0
  4 19  1  0  0  0
 19 20  2  0  0  0
 19 21  2  0  0  0
 19 22  1  0  0  0
 22 23  1  0  0  0
 23 24  1  0  0  0
 24 25  1  0  0  0
 25 26  1  0  0  0
 25 27  1  0  0  0
 27 28  1  0  0  0
  4  5  2  0  0  0
  5  6  1  0  0  0
  6  7  1  0  0  0
  7  8  2  0  0  0
  8  9  1  0  0  0
  9 15  1  0  0  0
 15 16  1  0  0  0
  9 10  2  0  0  0
 10 17  1  0  0  0
 17 18  1  0  0  0
 10 11  1  0  0  0
 11 12  2  0  0  0
 11 13  1  0  0  0
  6  1  2  0  0  0
 13  7  1  0  0  0
 28 22  1  0  0  0
 13 14  1  0  0  0
M  END
> <minimizedAffinity>
-1.24601

$$$$
