


 35 37  0  0  0  0  0  0  0  0999 V2000
    1.5899   74.3393   81.6967 C   0  0  0  0  0  0  0  0  0  0  0  0
    0.4868   73.4802   81.6255 C   0  0  0  0  0  0  0  0  0  0  0  0
    0.6666   72.1101   81.4057 C   0  0  0  0  0  0  0  0  0  0  0  0
    1.9567   71.5955   81.2656 C   0  0  0  0  0  0  0  0  0  0  0  0
    3.0716   72.4325   81.3296 C   0  0  0  0  0  0  0  0  0  0  0  0
    2.8811   73.8015   81.5481 C   0  0  0  0  0  0  0  0  0  0  0  0
    4.0727   74.6736   81.6028 C   0  0  0  0  0  0  0  0  0  0  0  0
    4.6954   75.0332   80.5299 N   0  0  0  0  0  0  0  0  0  0  0  0
    5.7970   75.8618   80.6478 C   0  0  0  0  0  0  0  0  0  0  0  0
    6.2668   76.3130   81.8313 C   0  0  0  0  0  0  0  0  0  0  0  0
    7.7432   77.4304   82.0803 Br  0  0  0  0  0  0  0  0  0  0  0  0
    5.5355   75.8816   83.0578 C   0  0  0  0  0  0  0  0  0  0  0  0
    5.8424   76.2308   84.1942 O   0  0  0  0  0  0  0  0  0  0  0  0
    4.4698   75.0556   82.8541 N   0  0  0  0  0  0  0  0  0  0  0  0
    3.9558   74.7898   83.6805 H   0  0  0  0  0  0  0  0  0  0  0  0
    6.4235   76.2220   79.2983 C   0  0  0  0  0  0  0  0  0  0  0  0
    6.6808   74.9664   78.4592 C   0  0  0  0  0  0  0  0  0  0  0  0
    5.5465   77.2147   78.5273 C   0  0  0  0  0  0  0  0  0  0  0  0
    2.2071   69.8600   80.9889 S   0  0  0  0  0  0  0  0  0  0  0  0
    3.5819   69.6937   80.5719 O   0  0  0  0  0  0  0  0  0  0  0  0
    1.1060   69.3543   80.1973 O   0  0  0  0  0  0  0  0  0  0  0  0
    2.0429   69.2200   82.5597 N   0  0  0  0  0  0  0  0  0  0  0  0
    1.4806   67.8304   82.6437 C   0  0  0  0  0  0  0  0  0  0  0  0
    2.5716   66.7964   82.9720 C   0  0  0  0  0  0  0  0  0  0  0  0
    3.1943   67.0237   84.2924 N   0  0  0  0  0  0  0  0  0  0  0  0
    4.5016   66.3744   84.3601 C   0  0  0  0  0  0  0  0  0  0  0  0
    3.2758   68.4630   84.6158 C   0  0  0  0  0  0  0  0  0  0  0  0
    3.2809   69.3957   83.3910 C   0  0  0  0  0  0  0  0  0  0  0  0
    1.5071   75.6788   81.9577 O   0  0  0  0  0  0  0  0  0  0  0  0
    0.2116   76.2682   82.0308 C   0  0  0  0  0  0  0  0  0  0  0  0
    0.3643   77.7853   82.1446 C   0  0  0  0  0  0  0  0  0  0  0  0
    0.9791   78.2711   83.4626 C   0  0  0  0  0  0  0  0  0  0  0  0
   -0.0186   78.6038   84.5755 C   0  0  0  0  0  0  0  0  0  0  0  0
    2.1190   78.4190   85.8951 C   0  0  0  0  0  0  0  0  0  0  0  0
    0.6217   78.6788   85.9616 C   0  0  0  0  0  0  0  0  0  0  0  0
 34 35  1  0  0  0
 35 33  1  0  0  0
 33 32  1  0  0  0
 32 31  1  0  0  0
 31 30  1  0  0  0
 30 29  1  0  0  0
 29  1  1  0  0  0
  1  2  1  0  0  0
  2  3  2  0  0  0
  3  4  1  0  0  0
  4 19  1  0  0  0
 19 20  2  0  0  0
 19 21  2  0  0  0
 19 22  1  0  0  0
 22 23  1  0  0  0
 23 24  1  0  0  0
 24 25  1  0  0  0
 25 26  1  0  0  0
 25 27  1  0  0  0
 27 28  1  0  0  0
  4  5  2  0  0  0
  5  6  1  0  0  0
  6  7  1  0  0  0
  7  8  2  0  0  0
  8  9  1  0  0  0
  9 16  1  0  0  0
 16 17  1  0  0  0
 16 18  1  0  0  0
  9 10  2  0  0  0
 10 11  1  0  0  0
 10 12  1  0  0  0
 12 13  2  0  0  0
 12 14  1  0  0  0
  6  1  2  0  0  0
 14  7  1  0  0  0
 28 22  1  0  0  0
 14 15  1  0  0  0
M  END
> <minimizedAffinity>
-1.36995

$$$$



 35 37  0  0  0  0  0  0  0  0999 V2000
    1.6950   74.3460   81.6665 C   0  0  0  0  0  0  0  0  0  0  0  0
    0.6425   73.4605   81.9276 C   0  0  0  0  0  0  0  0  0  0  0  0
    0.8010   72.0866   81.7149 C   0  0  0  0  0  0  0  0  0  0  0  0
    2.0212   71.5952   81.2475 C   0  0  0  0  0  0  0  0  0  0  0  0
    3.0837   72.4586   80.9771 C   0  0  0  0  0  0  0  0  0  0  0  0
    2.9147   73.8311   81.1916 C   0  0  0  0  0  0  0  0  0  0  0  0
    4.0475   74.7308   80.8902 C   0  0  0  0  0  0  0  0  0  0  0  0
    4.8083   75.1942   81.8253 N   0  0  0  0  0  0  0  0  0  0  0  0
    5.8606   76.0217   81.4760 C   0  0  0  0  0  0  0  0  0  0  0  0
    6.1345   76.3819   80.2031 C   0  0  0  0  0  0  0  0  0  0  0  0
    7.5299   77.4917   79.6449 Br  0  0  0  0  0  0  0  0  0  0  0  0
    5.2404   75.8391   79.1396 C   0  0  0  0  0  0  0  0  0  0  0  0
    5.3848   76.0702   77.9424 O   0  0  0  0  0  0  0  0  0  0  0  0
    4.2207   75.0427   79.5703 N   0  0  0  0  0  0  0  0  0  0  0  0
    3.6354   74.6496   78.8487 H   0  0  0  0  0  0  0  0  0  0  0  0
    6.6880   76.4801   82.6796 C   0  0  0  0  0  0  0  0  0  0  0  0
    5.8046   76.6564   83.9187 C   0  0  0  0  0  0  0  0  0  0  0  0
    7.8334   75.5037   82.9691 C   0  0  0  0  0  0  0  0  0  0  0  0
    2.2441   69.8556   80.9737 S   0  0  0  0  0  0  0  0  0  0  0  0
    3.6204   69.6648   80.5728 O   0  0  0  0  0  0  0  0  0  0  0  0
    1.1435   69.3693   80.1691 O   0  0  0  0  0  0  0  0  0  0  0  0
    2.0500   69.2187   82.5423 N   0  0  0  0  0  0  0  0  0  0  0  0
    1.4769   67.8331   82.6188 C   0  0  0  0  0  0  0  0  0  0  0  0
    2.5552   66.7920   82.9660 C   0  0  0  0  0  0  0  0  0  0  0  0
    3.1581   67.0168   84.2960 N   0  0  0  0  0  0  0  0  0  0  0  0
    4.4596   66.3584   84.3855 C   0  0  0  0  0  0  0  0  0  0  0  0
    3.2443   68.4558   84.6190 C   0  0  0  0  0  0  0  0  0  0  0  0
    3.2757   69.3869   83.3933 C   0  0  0  0  0  0  0  0  0  0  0  0
    1.6421   75.6932   81.8936 O   0  0  0  0  0  0  0  0  0  0  0  0
    0.6245   76.4438   81.2362 C   0  0  0  0  0  0  0  0  0  0  0  0
    0.5737   77.8459   81.8441 C   0  0  0  0  0  0  0  0  0  0  0  0
    0.1550   77.8911   83.3185 C   0  0  0  0  0  0  0  0  0  0  0  0
    1.1501   78.5627   84.2689 C   0  0  0  0  0  0  0  0  0  0  0  0
    2.1203   78.6781   86.5907 C   0  0  0  0  0  0  0  0  0  0  0  0
    1.0391   78.0685   85.7113 C   0  0  0  0  0  0  0  0  0  0  0  0
 34 35  1  0  0  0
 35 33  1  0  0  0
 33 32  1  0  0  0
 32 31  1  0  0  0
 31 30  1  0  0  0
 30 29  1  0  0  0
 29  1  1  0  0  0
  1  2  1  0  0  0
  2  3  2  0  0  0
  3  4  1  0  0  0
  4 19  1  0  0  0
 19 20  2  0  0  0
 19 21  2  0  0  0
 19 22  1  0  0  0
 22 23  1  0  0  0
 23 24  1  0  0  0
 24 25  1  0  0  0
 25 26  1  0  0  0
 25 27  1  0  0  0
 27 28  1  0  0  0
  4  5  2  0  0  0
  5  6  1  0  0  0
  6  7  1  0  0  0
  7  8  2  0  0  0
  8  9  1  0  0  0
  9 16  1  0  0  0
 16 17  1  0  0  0
 16 18  1  0  0  0
  9 10  2  0  0  0
 10 11  1  0  0  0
 10 12  1  0  0  0
 12 13  2  0  0  0
 12 14  1  0  0  0
  6  1  2  0  0  0
 14  7  1  0  0  0
 28 22  1  0  0  0
 14 15  1  0  0  0
M  END
> <minimizedAffinity>
-1.28430

$$$$



 35 37  0  0  0  0  0  0  0  0999 V2000
    2.4941   74.7380   81.1136 C   0  0  0  0  0  0  0  0  0  0  0  0
    1.3387   74.0225   81.4499 C   0  0  0  0  0  0  0  0  0  0  0  0
    1.3966   72.6414   81.6673 C   0  0  0  0  0  0  0  0  0  0  0  0
    2.6179   71.9744   81.5568 C   0  0  0  0  0  0  0  0  0  0  0  0
    3.7825   72.6655   81.2197 C   0  0  0  0  0  0  0  0  0  0  0  0
    3.7138   74.0463   81.0026 C   0  0  0  0  0  0  0  0  0  0  0  0
    4.9552   74.7594   80.6366 C   0  0  0  0  0  0  0  0  0  0  0  0
    5.3175   74.8942   79.4043 N   0  0  0  0  0  0  0  0  0  0  0  0
    6.4841   75.5843   79.1270 C   0  0  0  0  0  0  0  0  0  0  0  0
    7.2762   76.1221   80.0801 C   0  0  0  0  0  0  0  0  0  0  0  0
    8.8633   77.0655   79.7947 Br  0  0  0  0  0  0  0  0  0  0  0  0
    6.8414   75.9504   81.4966 C   0  0  0  0  0  0  0  0  0  0  0  0
    7.4554   76.4026   82.4590 O   0  0  0  0  0  0  0  0  0  0  0  0
    5.6880   75.2472   81.6827 N   0  0  0  0  0  0  0  0  0  0  0  0
    5.3768   75.1587   82.6384 H   0  0  0  0  0  0  0  0  0  0  0  0
    6.7804   75.6832   77.6284 C   0  0  0  0  0  0  0  0  0  0  0  0
    6.6489   74.3157   76.9507 C   0  0  0  0  0  0  0  0  0  0  0  0
    5.8680   76.7108   76.9496 C   0  0  0  0  0  0  0  0  0  0  0  0
    2.7138   70.2233   81.8314 S   0  0  0  0  0  0  0  0  0  0  0  0
    2.1553   69.9707   83.1413 O   0  0  0  0  0  0  0  0  0  0  0  0
    4.0403   69.7704   81.4703 O   0  0  0  0  0  0  0  0  0  0  0  0
    1.6319   69.6180   80.6623 N   0  0  0  0  0  0  0  0  0  0  0  0
    2.2175   68.6640   79.6617 C   0  0  0  0  0  0  0  0  0  0  0  0
    1.7966   67.2123   79.9489 C   0  0  0  0  0  0  0  0  0  0  0  0
    0.3369   67.0098   79.8425 N   0  0  0  0  0  0  0  0  0  0  0  0
   -0.0680   65.8118   80.5747 C   0  0  0  0  0  0  0  0  0  0  0  0
   -0.4124   68.2047   80.2821 C   0  0  0  0  0  0  0  0  0  0  0  0
    0.3504   69.1149   81.2619 C   0  0  0  0  0  0  0  0  0  0  0  0
    2.5359   76.0926   80.9338 O   0  0  0  0  0  0  0  0  0  0  0  0
    1.6340   76.8968   81.6894 C   0  0  0  0  0  0  0  0  0  0  0  0
    2.4232   78.0101   82.3789 C   0  0  0  0  0  0  0  0  0  0  0  0
    1.7814   78.5515   83.6620 C   0  0  0  0  0  0  0  0  0  0  0  0
    1.8893   77.6435   84.8902 C   0  0  0  0  0  0  0  0  0  0  0  0
    2.4525   78.6580   87.1260 C   0  0  0  0  0  0  0  0  0  0  0  0
    1.3355   78.2797   86.1652 C   0  0  0  0  0  0  0  0  0  0  0  0
 34 35  1  0  0  0
 35 33  1  0  0  0
 33 32  1  0  0  0
 32 31  1  0  0  0
 31 30  1  0  0  0
 30 29  1  0  0  0
 29  1  1  0  0  0
  1  2  1  0  0  0
  2  3  2  0  0  0
  3  4  1  0  0  0
  4 19  1  0  0  0
 19 20  2  0  0  0
 19 21  2  0  0  0
 19 22  1  0  0  0
 22 23  1  0  0  0
 23 24  1  0  0  0
 24 25  1  0  0  0
 25 26  1  0  0  0
 25 27  1  0  0  0
 27 28  1  0  0  0
  4  5  2  0  0  0
  5  6  1  0  0  0
  6  7  1  0  0  0
  7  8  2  0  0  0
  8  9  1  0  0  0
  9 16  1  0  0  0
 16 17  1  0  0  0
 16 18  1  0  0  0
  9 10  2  0  0  0
 10 11  1  0  0  0
 10 12  1  0  0  0
 12 13  2  0  0  0
 12 14  1  0  0  0
  6  1  2  0  0  0
 14  7  1  0  0  0
 28 22  1  0  0  0
 14 15  1  0  0  0
M  END
> <minimizedAffinity>
-1.27891

$$$$



 35 37  0  0  0  0  0  0  0  0999 V2000
    1.3386   74.2427   81.6714 C   0  0  0  0  0  0  0  0  0  0  0  0
    0.2977   73.3118   81.5711 C   0  0  0  0  0  0  0  0  0  0  0  0
    0.5739   71.9595   81.3415 C   0  0  0  0  0  0  0  0  0  0  0  0
    1.8983   71.5347   81.2209 C   0  0  0  0  0  0  0  0  0  0  0  0
    2.9525   72.4443   81.3141 C   0  0  0  0  0  0  0  0  0  0  0  0
    2.6657   73.7949   81.5423 C   0  0  0  0  0  0  0  0  0  0  0  0
    3.7944   74.7448   81.6280 C   0  0  0  0  0  0  0  0  0  0  0  0
    4.4112   75.1569   80.5707 N   0  0  0  0  0  0  0  0  0  0  0  0
    5.4518   76.0567   80.7174 C   0  0  0  0  0  0  0  0  0  0  0  0
    5.8678   76.5261   81.9140 C   0  0  0  0  0  0  0  0  0  0  0  0
    7.2602   77.7380   82.2017 Br  0  0  0  0  0  0  0  0  0  0  0  0
    5.1446   76.0335   83.1220 C   0  0  0  0  0  0  0  0  0  0  0  0
    5.4059   76.3907   84.2673 O   0  0  0  0  0  0  0  0  0  0  0  0
    4.1412   75.1396   82.8902 N   0  0  0  0  0  0  0  0  0  0  0  0
    3.6311   74.8310   83.7040 H   0  0  0  0  0  0  0  0  0  0  0  0
    6.0775   76.4725   79.3837 C   0  0  0  0  0  0  0  0  0  0  0  0
    7.2273   75.5356   79.0002 C   0  0  0  0  0  0  0  0  0  0  0  0
    5.0265   76.5196   78.2691 C   0  0  0  0  0  0  0  0  0  0  0  0
    2.2706   69.8233   80.9323 S   0  0  0  0  0  0  0  0  0  0  0  0
    3.6844   69.7431   80.6387 O   0  0  0  0  0  0  0  0  0  0  0  0
    1.2754   69.2786   80.0335 O   0  0  0  0  0  0  0  0  0  0  0  0
    2.0029   69.1350   82.4680 N   0  0  0  0  0  0  0  0  0  0  0  0
    1.5156   67.7148   82.4717 C   0  0  0  0  0  0  0  0  0  0  0  0
    2.6300   66.7343   82.8767 C   0  0  0  0  0  0  0  0  0  0  0  0
    3.1177   66.9615   84.2527 N   0  0  0  0  0  0  0  0  0  0  0  0
    4.4486   66.3834   84.4257 C   0  0  0  0  0  0  0  0  0  0  0  0
    3.0875   68.3942   84.6118 C   0  0  0  0  0  0  0  0  0  0  0  0
    3.1493   69.3570   83.4121 C   0  0  0  0  0  0  0  0  0  0  0  0
    1.1605   75.5705   81.9438 O   0  0  0  0  0  0  0  0  0  0  0  0
   -0.0027   76.2105   81.4256 C   0  0  0  0  0  0  0  0  0  0  0  0
    0.4150   77.5042   80.7260 C   0  0  0  0  0  0  0  0  0  0  0  0
   -0.5850   78.0227   79.6856 C   0  0  0  0  0  0  0  0  0  0  0  0
   -1.6853   77.0392   79.2774 C   0  0  0  0  0  0  0  0  0  0  0  0
   -3.3515   76.3536   77.5171 C   0  0  0  0  0  0  0  0  0  0  0  0
   -2.1020   77.1694   77.8124 C   0  0  0  0  0  0  0  0  0  0  0  0
 34 35  1  0  0  0
 35 33  1  0  0  0
 33 32  1  0  0  0
 32 31  1  0  0  0
 31 30  1  0  0  0
 30 29  1  0  0  0
 29  1  1  0  0  0
  1  2  1  0  0  0
  2  3  2  0  0  0
  3  4  1  0  0  0
  4 19  1  0  0  0
 19 20  2  0  0  0
 19 21  2  0  0  0
 19 22  1  0  0  0
 22 23  1  0  0  0
 23 24  1  0  0  0
 24 25  1  0  0  0
 25 26  1  0  0  0
 25 27  1  0  0  0
 27 28  1  0  0  0
  4  5  2  0  0  0
  5  6  1  0  0  0
  6  7  1  0  0  0
  7  8  2  0  0  0
  8  9  1  0  0  0
  9 16  1  0  0  0
 16 17  1  0  0  0
 16 18  1  0  0  0
  9 10  2  0  0  0
 10 11  1  0  0  0
 10 12  1  0  0  0
 12 13  2  0  0  0
 12 14  1  0  0  0
  6  1  2  0  0  0
 14  7  1  0  0  0
 28 22  1  0  0  0
 14 15  1  0  0  0
M  END
> <minimizedAffinity>
-1.26150

$$$$



 35 37  0  0  0  0  0  0  0  0999 V2000
    2.3348   74.7655   81.1006 C   0  0  0  0  0  0  0  0  0  0  0  0
    1.2232   74.0164   81.5047 C   0  0  0  0  0  0  0  0  0  0  0  0
    1.3370   72.6394   81.7256 C   0  0  0  0  0  0  0  0  0  0  0  0
    2.5708   72.0103   81.5503 C   0  0  0  0  0  0  0  0  0  0  0  0
    3.6923   72.7353   81.1449 C   0  0  0  0  0  0  0  0  0  0  0  0
    3.5677   74.1117   80.9250 C   0  0  0  0  0  0  0  0  0  0  0  0
    4.7635   74.8609   80.4864 C   0  0  0  0  0  0  0  0  0  0  0  0
    5.5255   75.4706   81.3325 N   0  0  0  0  0  0  0  0  0  0  0  0
    6.6378   76.1437   80.8592 C   0  0  0  0  0  0  0  0  0  0  0  0
    6.9699   76.2066   79.5512 C   0  0  0  0  0  0  0  0  0  0  0  0
    8.4482   77.0910   78.8282 Br  0  0  0  0  0  0  0  0  0  0  0  0
    6.0735   75.4995   78.5912 C   0  0  0  0  0  0  0  0  0  0  0  0
    6.2662   75.4602   77.3792 O   0  0  0  0  0  0  0  0  0  0  0  0
    4.9935   74.8724   79.1388 N   0  0  0  0  0  0  0  0  0  0  0  0
    4.4050   74.3673   78.4935 H   0  0  0  0  0  0  0  0  0  0  0  0
    7.4582   76.8023   81.9711 C   0  0  0  0  0  0  0  0  0  0  0  0
    6.5475   77.4995   82.9867 C   0  0  0  0  0  0  0  0  0  0  0  0
    8.3634   75.7822   82.6706 C   0  0  0  0  0  0  0  0  0  0  0  0
    2.7375   70.2650   81.8280 S   0  0  0  0  0  0  0  0  0  0  0  0
    2.2033   69.9947   83.1445 O   0  0  0  0  0  0  0  0  0  0  0  0
    4.0765   69.8628   81.4535 O   0  0  0  0  0  0  0  0  0  0  0  0
    1.6673   69.6150   80.6721 N   0  0  0  0  0  0  0  0  0  0  0  0
    2.2679   68.6403   79.7007 C   0  0  0  0  0  0  0  0  0  0  0  0
    1.8624   67.1924   80.0266 C   0  0  0  0  0  0  0  0  0  0  0  0
    0.4056   66.9702   79.9204 N   0  0  0  0  0  0  0  0  0  0  0  0
    0.0113   65.7884   80.6842 C   0  0  0  0  0  0  0  0  0  0  0  0
   -0.3591   68.1682   80.3238 C   0  0  0  0  0  0  0  0  0  0  0  0
    0.3892   69.1140   81.2806 C   0  0  0  0  0  0  0  0  0  0  0  0
    2.3234   76.1195   80.9118 O   0  0  0  0  0  0  0  0  0  0  0  0
    2.2594   76.9559   82.0639 C   0  0  0  0  0  0  0  0  0  0  0  0
    0.9508   77.7460   82.0291 C   0  0  0  0  0  0  0  0  0  0  0  0
    0.2978   77.9663   83.3988 C   0  0  0  0  0  0  0  0  0  0  0  0
    1.1779   78.6485   84.4498 C   0  0  0  0  0  0  0  0  0  0  0  0
    1.5955   78.4828   86.9283 C   0  0  0  0  0  0  0  0  0  0  0  0
    0.5481   78.6768   85.8425 C   0  0  0  0  0  0  0  0  0  0  0  0
 34 35  1  0  0  0
 35 33  1  0  0  0
 33 32  1  0  0  0
 32 31  1  0  0  0
 31 30  1  0  0  0
 30 29  1  0  0  0
 29  1  1  0  0  0
  1  2  1  0  0  0
  2  3  2  0  0  0
  3  4  1  0  0  0
  4 19  1  0  0  0
 19 20  2  0  0  0
 19 21  2  0  0  0
 19 22  1  0  0  0
 22 23  1  0  0  0
 23 24  1  0  0  0
 24 25  1  0  0  0
 25 26  1  0  0  0
 25 27  1  0  0  0
 27 28  1  0  0  0
  4  5  2  0  0  0
  5  6  1  0  0  0
  6  7  1  0  0  0
  7  8  2  0  0  0
  8  9  1  0  0  0
  9 16  1  0  0  0
 16 17  1  0  0  0
 16 18  1  0  0  0
  9 10  2  0  0  0
 10 11  1  0  0  0
 10 12  1  0  0  0
 12 13  2  0  0  0
 12 14  1  0  0  0
  6  1  2  0  0  0
 14  7  1  0  0  0
 28 22  1  0  0  0
 14 15  1  0  0  0
M  END
> <minimizedAffinity>
-1.25241

$$$$



 35 37  0  0  0  0  0  0  0  0999 V2000
    0.3017   64.0678   82.1435 C   0  0  0  0  0  0  0  0  0  0  0  0
    0.8670   65.1045   82.8957 C   0  0  0  0  0  0  0  0  0  0  0  0
    1.0585   66.3698   82.3299 C   0  0  0  0  0  0  0  0  0  0  0  0
    0.6742   66.6018   81.0080 C   0  0  0  0  0  0  0  0  0  0  0  0
    0.1115   65.5835   80.2374 C   0  0  0  0  0  0  0  0  0  0  0  0
   -0.0744   64.3210   80.8120 C   0  0  0  0  0  0  0  0  0  0  0  0
   -0.6622   63.2525   79.9776 C   0  0  0  0  0  0  0  0  0  0  0  0
   -1.6138   62.4987   80.4184 N   0  0  0  0  0  0  0  0  0  0  0  0
   -2.1305   61.5246   79.5828 C   0  0  0  0  0  0  0  0  0  0  0  0
   -1.6868   61.3101   78.3249 C   0  0  0  0  0  0  0  0  0  0  0  0
   -2.3250   60.0206   77.1333 Br  0  0  0  0  0  0  0  0  0  0  0  0
   -0.5841   62.1888   77.8379 C   0  0  0  0  0  0  0  0  0  0  0  0
   -0.0990   62.1154   76.7123 O   0  0  0  0  0  0  0  0  0  0  0  0
   -0.1243   63.1135   78.7284 N   0  0  0  0  0  0  0  0  0  0  0  0
    0.5992   63.7289   78.3883 H   0  0  0  0  0  0  0  0  0  0  0  0
   -3.2625   60.7206   80.2272 C   0  0  0  0  0  0  0  0  0  0  0  0
   -2.8129   60.1067   81.5567 C   0  0  0  0  0  0  0  0  0  0  0  0
   -4.5118   61.5856   80.4285 C   0  0  0  0  0  0  0  0  0  0  0  0
    0.9057   68.2005   80.2720 S   0  0  0  0  0  0  0  0  0  0  0  0
   -0.4056   68.6926   79.9117 O   0  0  0  0  0  0  0  0  0  0  0  0
    1.9775   68.1127   79.3032 O   0  0  0  0  0  0  0  0  0  0  0  0
    1.4800   69.1199   81.5867 N   0  0  0  0  0  0  0  0  0  0  0  0
    2.9705   69.2803   81.6706 C   0  0  0  0  0  0  0  0  0  0  0  0
    3.4133   70.6922   81.2491 C   0  0  0  0  0  0  0  0  0  0  0  0
    2.8776   71.7463   82.1349 N   0  0  0  0  0  0  0  0  0  0  0  0
    2.8926   73.0407   81.4569 C   0  0  0  0  0  0  0  0  0  0  0  0
    1.5319   71.4029   82.6386 C   0  0  0  0  0  0  0  0  0  0  0  0
    0.7470   70.4201   81.7508 C   0  0  0  0  0  0  0  0  0  0  0  0
    0.0339   62.8194   82.6322 O   0  0  0  0  0  0  0  0  0  0  0  0
   -0.0919   62.6652   84.0433 C   0  0  0  0  0  0  0  0  0  0  0  0
   -1.5076   62.1846   84.3639 C   0  0  0  0  0  0  0  0  0  0  0  0
   -1.9673   62.4563   85.8012 C   0  0  0  0  0  0  0  0  0  0  0  0
   -0.9375   63.1352   86.7084 C   0  0  0  0  0  0  0  0  0  0  0  0
    0.4356   63.0302   88.8176 C   0  0  0  0  0  0  0  0  0  0  0  0
   -0.5847   62.3122   87.9475 C   0  0  0  0  0  0  0  0  0  0  0  0
 34 35  1  0  0  0
 35 33  1  0  0  0
 33 32  1  0  0  0
 32 31  1  0  0  0
 31 30  1  0  0  0
 30 29  1  0  0  0
 29  1  1  0  0  0
  1  2  1  0  0  0
  2  3  2  0  0  0
  3  4  1  0  0  0
  4 19  1  0  0  0
 19 20  2  0  0  0
 19 21  2  0  0  0
 19 22  1  0  0  0
 22 23  1  0  0  0
 23 24  1  0  0  0
 24 25  1  0  0  0
 25 26  1  0  0  0
 25 27  1  0  0  0
 27 28  1  0  0  0
  4  5  2  0  0  0
  5  6  1  0  0  0
  6  7  1  0  0  0
  7  8  2  0  0  0
  8  9  1  0  0  0
  9 16  1  0  0  0
 16 17  1  0  0  0
 16 18  1  0  0  0
  9 10  2  0  0  0
 10 11  1  0  0  0
 10 12  1  0  0  0
 12 13  2  0  0  0
 12 14  1  0  0  0
  6  1  2  0  0  0
 14  7  1  0  0  0
 28 22  1  0  0  0
 14 15  1  0  0  0
M  END
> <minimizedAffinity>
-1.21642

$$$$



 35 37  0  0  0  0  0  0  0  0999 V2000
    4.2345   72.7304   80.6214 C   0  0  0  0  0  0  0  0  0  0  0  0
    4.7066   71.4968   80.1571 C   0  0  0  0  0  0  0  0  0  0  0  0
    4.0000   70.3193   80.4256 C   0  0  0  0  0  0  0  0  0  0  0  0
    2.8106   70.3771   81.1542 C   0  0  0  0  0  0  0  0  0  0  0  0
    2.3218   71.5945   81.6302 C   0  0  0  0  0  0  0  0  0  0  0  0
    3.0366   72.7663   81.3577 C   0  0  0  0  0  0  0  0  0  0  0  0
    2.5089   74.0446   81.8784 C   0  0  0  0  0  0  0  0  0  0  0  0
    1.5465   74.6689   81.2851 N   0  0  0  0  0  0  0  0  0  0  0  0
    1.0886   75.8550   81.8306 C   0  0  0  0  0  0  0  0  0  0  0  0
    1.6007   76.4056   82.9530 C   0  0  0  0  0  0  0  0  0  0  0  0
    1.0445   77.9987   83.7549 Br  0  0  0  0  0  0  0  0  0  0  0  0
    2.7145   75.6703   83.6193 C   0  0  0  0  0  0  0  0  0  0  0  0
    3.2589   76.0469   84.6534 O   0  0  0  0  0  0  0  0  0  0  0  0
    3.1136   74.5176   83.0097 N   0  0  0  0  0  0  0  0  0  0  0  0
    3.8449   74.0037   83.4777 H   0  0  0  0  0  0  0  0  0  0  0  0
   -0.0639   76.4747   81.0363 C   0  0  0  0  0  0  0  0  0  0  0  0
    0.4568   77.4874   80.0116 C   0  0  0  0  0  0  0  0  0  0  0  0
   -0.9057   75.3951   80.3470 C   0  0  0  0  0  0  0  0  0  0  0  0
    1.8974   68.8955   81.5033 S   0  0  0  0  0  0  0  0  0  0  0  0
    2.4984   67.8363   80.7234 O   0  0  0  0  0  0  0  0  0  0  0  0
    0.4834   69.1932   81.4193 O   0  0  0  0  0  0  0  0  0  0  0  0
    2.2658   68.6266   83.1452 N   0  0  0  0  0  0  0  0  0  0  0  0
    1.7483   67.3441   83.7296 C   0  0  0  0  0  0  0  0  0  0  0  0
    2.8736   66.3115   83.9160 C   0  0  0  0  0  0  0  0  0  0  0  0
    3.9085   66.7613   84.8698 N   0  0  0  0  0  0  0  0  0  0  0  0
    5.1538   66.0270   84.6572 C   0  0  0  0  0  0  0  0  0  0  0  0
    4.1117   68.2231   84.8038 C   0  0  0  0  0  0  0  0  0  0  0  0
    3.7140   68.8655   83.4624 C   0  0  0  0  0  0  0  0  0  0  0  0
    4.8343   73.9313   80.3622 O   0  0  0  0  0  0  0  0  0  0  0  0
    6.0552   73.9256   79.6271 C   0  0  0  0  0  0  0  0  0  0  0  0
    6.7078   75.3035   79.7418 C   0  0  0  0  0  0  0  0  0  0  0  0
    7.4059   75.5733   81.0801 C   0  0  0  0  0  0  0  0  0  0  0  0
    8.1690   76.8975   81.1735 C   0  0  0  0  0  0  0  0  0  0  0  0
    7.9620   78.1537   83.3470 C   0  0  0  0  0  0  0  0  0  0  0  0
    7.4109   77.9816   81.9398 C   0  0  0  0  0  0  0  0  0  0  0  0
 34 35  1  0  0  0
 35 33  1  0  0  0
 33 32  1  0  0  0
 32 31  1  0  0  0
 31 30  1  0  0  0
 30 29  1  0  0  0
 29  1  1  0  0  0
  1  2  1  0  0  0
  2  3  2  0  0  0
  3  4  1  0  0  0
  4 19  1  0  0  0
 19 20  2  0  0  0
 19 21  2  0  0  0
 19 22  1  0  0  0
 22 23  1  0  0  0
 23 24  1  0  0  0
 24 25  1  0  0  0
 25 26  1  0  0  0
 25 27  1  0  0  0
 27 28  1  0  0  0
  4  5  2  0  0  0
  5  6  1  0  0  0
  6  7  1  0  0  0
  7  8  2  0  0  0
  8  9  1  0  0  0
  9 16  1  0  0  0
 16 17  1  0  0  0
 16 18  1  0  0  0
  9 10  2  0  0  0
 10 11  1  0  0  0
 10 12  1  0  0  0
 12 13  2  0  0  0
 12 14  1  0  0  0
  6  1  2  0  0  0
 14  7  1  0  0  0
 28 22  1  0  0  0
 14 15  1  0  0  0
M  END
> <minimizedAffinity>
-1.20707

$$$$



 35 37  0  0  0  0  0  0  0  0999 V2000
    0.3146   64.1088   82.5726 C   0  0  0  0  0  0  0  0  0  0  0  0
    1.0814   65.1299   83.1466 C   0  0  0  0  0  0  0  0  0  0  0  0
    1.2699   66.3413   82.4721 C   0  0  0  0  0  0  0  0  0  0  0  0
    0.6807   66.5357   81.2215 C   0  0  0  0  0  0  0  0  0  0  0  0
   -0.0853   65.5315   80.6278 C   0  0  0  0  0  0  0  0  0  0  0  0
   -0.2664   64.3230   81.3097 C   0  0  0  0  0  0  0  0  0  0  0  0
   -1.0721   63.2677   80.6609 C   0  0  0  0  0  0  0  0  0  0  0  0
   -0.9593   63.0122   79.3999 N   0  0  0  0  0  0  0  0  0  0  0  0
   -1.7328   62.0026   78.8553 C   0  0  0  0  0  0  0  0  0  0  0  0
   -2.6120   61.2687   79.5718 C   0  0  0  0  0  0  0  0  0  0  0  0
   -3.6930   59.8922   78.9183 Br  0  0  0  0  0  0  0  0  0  0  0  0
   -2.7296   61.5838   81.0251 C   0  0  0  0  0  0  0  0  0  0  0  0
   -3.4746   60.9847   81.7957 O   0  0  0  0  0  0  0  0  0  0  0  0
   -1.9419   62.6007   81.4779 N   0  0  0  0  0  0  0  0  0  0  0  0
   -1.9976   62.7925   82.4669 H   0  0  0  0  0  0  0  0  0  0  0  0
   -1.4832   61.7968   77.3591 C   0  0  0  0  0  0  0  0  0  0  0  0
   -0.9610   63.0809   76.7073 C   0  0  0  0  0  0  0  0  0  0  0  0
   -0.5138   60.6353   77.1135 C   0  0  0  0  0  0  0  0  0  0  0  0
    0.9048   68.0660   80.3503 S   0  0  0  0  0  0  0  0  0  0  0  0
   -0.4119   68.5408   79.9867 O   0  0  0  0  0  0  0  0  0  0  0  0
    1.9482   67.8876   79.3631 O   0  0  0  0  0  0  0  0  0  0  0  0
    1.5236   69.0840   81.5688 N   0  0  0  0  0  0  0  0  0  0  0  0
    3.0036   69.3325   81.5236 C   0  0  0  0  0  0  0  0  0  0  0  0
    3.3258   70.7432   81.0007 C   0  0  0  0  0  0  0  0  0  0  0  0
    2.7983   71.8103   81.8757 N   0  0  0  0  0  0  0  0  0  0  0  0
    2.6818   73.0661   81.1377 C   0  0  0  0  0  0  0  0  0  0  0  0
    1.5193   71.4182   82.5028 C   0  0  0  0  0  0  0  0  0  0  0  0
    0.7282   70.3475   81.7296 C   0  0  0  0  0  0  0  0  0  0  0  0
    0.0393   62.9168   83.1830 O   0  0  0  0  0  0  0  0  0  0  0  0
    0.0208   62.8822   84.6075 C   0  0  0  0  0  0  0  0  0  0  0  0
   -1.4001   62.5670   85.0760 C   0  0  0  0  0  0  0  0  0  0  0  0
   -1.5157   62.1706   86.5527 C   0  0  0  0  0  0  0  0  0  0  0  0
   -1.4059   63.3208   87.5575 C   0  0  0  0  0  0  0  0  0  0  0  0
    0.2372   62.2214   89.1183 C   0  0  0  0  0  0  0  0  0  0  0  0
   -0.0314   63.4187   88.2195 C   0  0  0  0  0  0  0  0  0  0  0  0
 34 35  1  0  0  0
 35 33  1  0  0  0
 33 32  1  0  0  0
 32 31  1  0  0  0
 31 30  1  0  0  0
 30 29  1  0  0  0
 29  1  1  0  0  0
  1  2  1  0  0  0
  2  3  2  0  0  0
  3  4  1  0  0  0
  4 19  1  0  0  0
 19 20  2  0  0  0
 19 21  2  0  0  0
 19 22  1  0  0  0
 22 23  1  0  0  0
 23 24  1  0  0  0
 24 25  1  0  0  0
 25 26  1  0  0  0
 25 27  1  0  0  0
 27 28  1  0  0  0
  4  5  2  0  0  0
  5  6  1  0  0  0
  6  7  1  0  0  0
  7  8  2  0  0  0
  8  9  1  0  0  0
  9 16  1  0  0  0
 16 17  1  0  0  0
 16 18  1  0  0  0
  9 10  2  0  0  0
 10 11  1  0  0  0
 10 12  1  0  0  0
 12 13  2  0  0  0
 12 14  1  0  0  0
  6  1  2  0  0  0
 14  7  1  0  0  0
 28 22  1  0  0  0
 14 15  1  0  0  0
M  END
> <minimizedAffinity>
-1.20220

$$$$



 35 37  0  0  0  0  0  0  0  0999 V2000
    1.2859   74.2361   81.4050 C   0  0  0  0  0  0  0  0  0  0  0  0
    0.2797   73.2683   81.5100 C   0  0  0  0  0  0  0  0  0  0  0  0
    0.5805   71.9110   81.3520 C   0  0  0  0  0  0  0  0  0  0  0  0
    1.8959   71.5191   81.0969 C   0  0  0  0  0  0  0  0  0  0  0  0
    2.9153   72.4655   80.9848 C   0  0  0  0  0  0  0  0  0  0  0  0
    2.6039   73.8207   81.1428 C   0  0  0  0  0  0  0  0  0  0  0  0
    3.6945   74.8090   81.0107 C   0  0  0  0  0  0  0  0  0  0  0  0
    4.3000   75.2880   82.0461 N   0  0  0  0  0  0  0  0  0  0  0  0
    5.3221   76.2005   81.8543 C   0  0  0  0  0  0  0  0  0  0  0  0
    5.7202   76.6284   80.6363 C   0  0  0  0  0  0  0  0  0  0  0  0
    7.0860   77.8546   80.2882 Br  0  0  0  0  0  0  0  0  0  0  0  0
    5.0041   76.0659   79.4548 C   0  0  0  0  0  0  0  0  0  0  0  0
    5.2746   76.3532   78.2921 O   0  0  0  0  0  0  0  0  0  0  0  0
    4.0022   75.1835   79.7323 N   0  0  0  0  0  0  0  0  0  0  0  0
    3.5393   74.7787   78.9324 H   0  0  0  0  0  0  0  0  0  0  0  0
    5.9614   76.6687   83.1641 C   0  0  0  0  0  0  0  0  0  0  0  0
    4.9341   76.6901   84.3002 C   0  0  0  0  0  0  0  0  0  0  0  0
    7.1615   75.7923   83.5394 C   0  0  0  0  0  0  0  0  0  0  0  0
    2.2994   69.8022   80.8960 S   0  0  0  0  0  0  0  0  0  0  0  0
    3.7084   69.7348   80.5772 O   0  0  0  0  0  0  0  0  0  0  0  0
    1.2983   69.1877   80.0503 O   0  0  0  0  0  0  0  0  0  0  0  0
    2.0776   69.1956   82.4729 N   0  0  0  0  0  0  0  0  0  0  0  0
    1.4953   67.8149   82.5661 C   0  0  0  0  0  0  0  0  0  0  0  0
    2.5620   66.7744   82.9490 C   0  0  0  0  0  0  0  0  0  0  0  0
    3.1457   67.0204   84.2838 N   0  0  0  0  0  0  0  0  0  0  0  0
    4.4418   66.3566   84.4056 C   0  0  0  0  0  0  0  0  0  0  0  0
    3.2354   68.4647   84.5815 C   0  0  0  0  0  0  0  0  0  0  0  0
    3.2910   69.3727   83.3395 C   0  0  0  0  0  0  0  0  0  0  0  0
    1.0886   75.5756   81.5946 O   0  0  0  0  0  0  0  0  0  0  0  0
   -0.0963   76.1604   81.0608 C   0  0  0  0  0  0  0  0  0  0  0  0
    0.2723   76.9866   79.8281 C   0  0  0  0  0  0  0  0  0  0  0  0
   -0.8779   77.8155   79.2441 C   0  0  0  0  0  0  0  0  0  0  0  0
   -2.2270   77.0982   79.1447 C   0  0  0  0  0  0  0  0  0  0  0  0
   -3.8734   75.8796   77.6787 C   0  0  0  0  0  0  0  0  0  0  0  0
   -2.6186   76.7386   77.7114 C   0  0  0  0  0  0  0  0  0  0  0  0
 34 35  1  0  0  0
 35 33  1  0  0  0
 33 32  1  0  0  0
 32 31  1  0  0  0
 31 30  1  0  0  0
 30 29  1  0  0  0
 29  1  1  0  0  0
  1  2  1  0  0  0
  2  3  2  0  0  0
  3  4  1  0  0  0
  4 19  1  0  0  0
 19 20  2  0  0  0
 19 21  2  0  0  0
 19 22  1  0  0  0
 22 23  1  0  0  0
 23 24  1  0  0  0
 24 25  1  0  0  0
 25 26  1  0  0  0
 25 27  1  0  0  0
 27 28  1  0  0  0
  4  5  2  0  0  0
  5  6  1  0  0  0
  6  7  1  0  0  0
  7  8  2  0  0  0
  8  9  1  0  0  0
  9 16  1  0  0  0
 16 17  1  0  0  0
 16 18  1  0  0  0
  9 10  2  0  0  0
 10 11  1  0  0  0
 10 12  1  0  0  0
 12 13  2  0  0  0
 12 14  1  0  0  0
  6  1  2  0  0  0
 14  7  1  0  0  0
 28 22  1  0  0  0
 14 15  1  0  0  0
M  END
> <minimizedAffinity>
-1.19814

$$$$
