


 36 39  0  0  0  0  0  0  0  0999 V2000
    0.0022   63.7017   85.3507 C   0  0  0  0  0  0  0  0  0  0  0  0
   -0.7418   62.5151   85.4165 C   0  0  0  0  0  0  0  0  0  0  0  0
   -0.9111   61.7095   84.2869 C   0  0  0  0  0  0  0  0  0  0  0  0
   -0.3371   62.0681   83.0668 C   0  0  0  0  0  0  0  0  0  0  0  0
    0.4097   63.2508   82.9967 C   0  0  0  0  0  0  0  0  0  0  0  0
    0.5928   64.0756   84.1244 C   0  0  0  0  0  0  0  0  0  0  0  0
    1.4144   65.3236   83.9235 C   0  0  0  0  0  0  0  0  0  0  0  0
    2.5247   65.4819   84.5938 N   0  0  0  0  0  0  0  0  0  0  0  0
    3.1928   66.6755   84.3212 C   0  0  0  0  0  0  0  0  0  0  0  0
    4.3990   67.1704   84.8424 C   0  0  0  0  0  0  0  0  0  0  0  0
    4.6871   68.3737   84.3091 N   0  0  0  0  0  0  0  0  0  0  0  0
    3.6595   68.6090   83.4552 N   0  0  0  0  0  0  0  0  0  0  0  0
    3.6296   69.8282   82.6843 C   0  0  0  0  0  0  0  0  0  0  0  0
    2.7396   67.6087   83.4391 C   0  0  0  0  0  0  0  0  0  0  0  0
    1.5386   67.4478   82.7068 C   0  0  0  0  0  0  0  0  0  0  0  0
    1.0835   68.2390   81.8892 O   0  0  0  0  0  0  0  0  0  0  0  0
    0.9206   66.2592   83.0193 N   0  0  0  0  0  0  0  0  0  0  0  0
    0.0644   66.0618   82.5184 H   0  0  0  0  0  0  0  0  0  0  0  0
    5.3028   66.5371   85.8407 C   0  0  0  0  0  0  0  0  0  0  0  0
    6.2624   65.5435   85.2042 C   0  0  0  0  0  0  0  0  0  0  0  0
    0.2000   64.5225   86.4334 O   0  0  0  0  0  0  0  0  0  0  0  0
    0.8432   63.3628   88.4113 C   0  0  0  0  0  0  0  0  0  0  0  0
   -0.2883   64.0880   87.7048 C   0  0  0  0  0  0  0  0  0  0  0  0
   -0.5232   61.2012   81.8436 C   0  0  0  0  0  0  0  0  0  0  0  0
   -0.8740   61.9995   80.5688 C   0  0  0  0  0  0  0  0  0  0  0  0
   -0.7271   61.1323   79.3009 C   0  0  0  0  0  0  0  0  0  0  0  0
   -1.6321   61.6153   78.1712 C   0  0  0  0  0  0  0  0  0  0  0  0
   -3.1196   61.5125   78.5529 C   0  0  0  0  0  0  0  0  0  0  0  0
   -3.3573   61.7405   80.0568 C   0  0  0  0  0  0  0  0  0  0  0  0
   -2.2808   62.6218   80.6807 C   0  0  0  0  0  0  0  0  0  0  0  0
   -3.7259   60.1757   78.1299 C   0  0  0  0  0  0  0  0  0  0  0  0
   -3.4769   59.5977   77.0741 O   0  0  0  0  0  0  0  0  0  0  0  0
   -4.6024   59.6422   79.0518 N   0  0  0  0  0  0  0  0  0  0  0  0
   -5.2769   58.4737   78.6187 O   0  0  0  0  0  0  0  0  0  0  0  0
   -5.1180   60.2344   79.6943 H   0  0  0  0  0  0  0  0  0  0  0  0
   -4.8733   58.3124   77.7362 H   0  0  0  0  0  0  0  0  0  0  0  0
 22 23  1  0  0  0
 23 21  1  0  0  0
 21  1  1  0  0  0
  1  2  1  0  0  0
  2  3  2  0  0  0
  3  4  1  0  0  0
  4 24  1  0  0  0
 24 25  1  0  0  0
 25 26  1  0  0  0
 26 27  1  0  0  0
 27 28  1  0  0  0
 28 31  1  0  0  0
 31 32  2  0  0  0
 31 33  1  0  0  0
 33 34  1  0  0  0
 28 29  1  0  0  0
 29 30  1  0  0  0
  4  5  2  0  0  0
  5  6  1  0  0  0
  6  7  1  0  0  0
  7  8  2  0  0  0
  8  9  1  0  0  0
  9 10  1  0  0  0
 10 19  1  0  0  0
 19 20  1  0  0  0
 10 11  2  0  0  0
 11 12  1  0  0  0
 12 13  1  0  0  0
 12 14  1  0  0  0
 14 15  1  0  0  0
 15 16  2  0  0  0
 15 17  1  0  0  0
  6  1  2  0  0  0
 17  7  1  0  0  0
 30 25  1  0  0  0
 14  9  2  0  0  0
 33 35  1  0  0  0
 34 36  1  0  0  0
 17 18  1  0  0  0
M  END
> <minimizedAffinity>
-11.03940

$$$$



 36 39  0  0  0  0  0  0  0  0999 V2000
    3.4809   66.3209   84.6769 C   0  0  0  0  0  0  0  0  0  0  0  0
    4.1655   67.3655   84.0397 C   0  0  0  0  0  0  0  0  0  0  0  0
    3.4994   68.2398   83.1762 C   0  0  0  0  0  0  0  0  0  0  0  0
    2.1333   68.0937   82.9330 C   0  0  0  0  0  0  0  0  0  0  0  0
    1.4443   67.0538   83.5696 C   0  0  0  0  0  0  0  0  0  0  0  0
    2.0976   66.1631   84.4445 C   0  0  0  0  0  0  0  0  0  0  0  0
    1.2500   65.0831   85.0675 C   0  0  0  0  0  0  0  0  0  0  0  0
    0.3213   64.4995   84.3575 N   0  0  0  0  0  0  0  0  0  0  0  0
   -0.3940   63.5193   85.0452 C   0  0  0  0  0  0  0  0  0  0  0  0
   -1.4428   62.6960   84.6051 C   0  0  0  0  0  0  0  0  0  0  0  0
   -1.8553   61.8833   85.5973 N   0  0  0  0  0  0  0  0  0  0  0  0
   -1.0512   62.2055   86.6414 N   0  0  0  0  0  0  0  0  0  0  0  0
   -1.2005   61.5205   87.9024 C   0  0  0  0  0  0  0  0  0  0  0  0
   -0.1611   63.1890   86.3456 C   0  0  0  0  0  0  0  0  0  0  0  0
    0.8426   63.8138   87.1244 C   0  0  0  0  0  0  0  0  0  0  0  0
    1.1131   63.5543   88.2911 O   0  0  0  0  0  0  0  0  0  0  0  0
    1.5101   64.7734   86.3991 N   0  0  0  0  0  0  0  0  0  0  0  0
    2.2595   65.2504   86.8826 H   0  0  0  0  0  0  0  0  0  0  0  0
   -2.0781   62.6488   83.2602 C   0  0  0  0  0  0  0  0  0  0  0  0
   -2.5097   61.2428   82.8731 C   0  0  0  0  0  0  0  0  0  0  0  0
    4.0905   65.4407   85.5364 O   0  0  0  0  0  0  0  0  0  0  0  0
    5.8342   65.5412   87.1549 C   0  0  0  0  0  0  0  0  0  0  0  0
    5.5120   65.5081   85.6716 C   0  0  0  0  0  0  0  0  0  0  0  0
    1.4127   69.0346   81.9961 C   0  0  0  0  0  0  0  0  0  0  0  0
    1.2806   68.4911   80.5565 C   0  0  0  0  0  0  0  0  0  0  0  0
    2.0938   67.1936   80.3657 C   0  0  0  0  0  0  0  0  0  0  0  0
    1.5134   66.3134   79.2625 C   0  0  0  0  0  0  0  0  0  0  0  0
    0.0883   65.8427   79.6036 C   0  0  0  0  0  0  0  0  0  0  0  0
   -0.6914   66.8813   80.4303 C   0  0  0  0  0  0  0  0  0  0  0  0
   -0.2018   68.3025   80.1749 C   0  0  0  0  0  0  0  0  0  0  0  0
    0.0901   64.4987   80.3299 C   0  0  0  0  0  0  0  0  0  0  0  0
    0.5142   64.3203   81.4696 O   0  0  0  0  0  0  0  0  0  0  0  0
   -0.4399   63.4623   79.5898 N   0  0  0  0  0  0  0  0  0  0  0  0
   -0.3224   62.1853   80.1926 O   0  0  0  0  0  0  0  0  0  0  0  0
   -0.4187   63.4729   78.5756 H   0  0  0  0  0  0  0  0  0  0  0  0
    0.0857   62.3992   81.0617 H   0  0  0  0  0  0  0  0  0  0  0  0
 22 23  1  0  0  0
 23 21  1  0  0  0
 21  1  1  0  0  0
  1  2  1  0  0  0
  2  3  2  0  0  0
  3  4  1  0  0  0
  4 24  1  0  0  0
 24 25  1  0  0  0
 25 26  1  0  0  0
 26 27  1  0  0  0
 27 28  1  0  0  0
 28 31  1  0  0  0
 31 32  2  0  0  0
 31 33  1  0  0  0
 33 34  1  0  0  0
 28 29  1  0  0  0
 29 30  1  0  0  0
  4  5  2  0  0  0
  5  6  1  0  0  0
  6  7  1  0  0  0
  7  8  2  0  0  0
  8  9  1  0  0  0
  9 10  1  0  0  0
 10 19  1  0  0  0
 19 20  1  0  0  0
 10 11  2  0  0  0
 11 12  1  0  0  0
 12 13  1  0  0  0
 12 14  1  0  0  0
 14 15  1  0  0  0
 15 16  2  0  0  0
 15 17  1  0  0  0
  6  1  2  0  0  0
 17  7  1  0  0  0
 30 25  1  0  0  0
 14  9  2  0  0  0
 33 35  1  0  0  0
 34 36  1  0  0  0
 17 18  1  0  0  0
M  END
> <minimizedAffinity>
-11.02881

$$$$



 36 39  0  0  0  0  0  0  0  0999 V2000
   -0.0842   63.7377   86.3398 C   0  0  0  0  0  0  0  0  0  0  0  0
   -1.2082   62.8996   86.3350 C   0  0  0  0  0  0  0  0  0  0  0  0
   -1.8885   62.6166   85.1472 C   0  0  0  0  0  0  0  0  0  0  0  0
   -1.4589   63.1605   83.9363 C   0  0  0  0  0  0  0  0  0  0  0  0
   -0.3348   63.9958   83.9354 C   0  0  0  0  0  0  0  0  0  0  0  0
    0.3652   64.2919   85.1219 C   0  0  0  0  0  0  0  0  0  0  0  0
    1.5579   65.2051   84.9938 C   0  0  0  0  0  0  0  0  0  0  0  0
    1.4886   66.2546   84.2187 N   0  0  0  0  0  0  0  0  0  0  0  0
    2.6549   67.0187   84.1840 C   0  0  0  0  0  0  0  0  0  0  0  0
    2.9365   68.1987   83.4768 C   0  0  0  0  0  0  0  0  0  0  0  0
    4.1951   68.6105   83.7247 N   0  0  0  0  0  0  0  0  0  0  0  0
    4.6788   67.6852   84.5909 N   0  0  0  0  0  0  0  0  0  0  0  0
    6.0263   67.8048   85.0926 C   0  0  0  0  0  0  0  0  0  0  0  0
    3.7795   66.7103   84.8872 C   0  0  0  0  0  0  0  0  0  0  0  0
    3.8660   65.5766   85.7307 C   0  0  0  0  0  0  0  0  0  0  0  0
    4.8392   65.2512   86.4006 O   0  0  0  0  0  0  0  0  0  0  0  0
    2.6925   64.8587   85.7214 N   0  0  0  0  0  0  0  0  0  0  0  0
    2.6692   64.0432   86.3192 H   0  0  0  0  0  0  0  0  0  0  0  0
    2.0451   68.9624   82.5621 C   0  0  0  0  0  0  0  0  0  0  0  0
    2.2155   68.5480   81.1086 C   0  0  0  0  0  0  0  0  0  0  0  0
    0.6190   64.0407   87.4795 O   0  0  0  0  0  0  0  0  0  0  0  0
    0.5243   62.3701   89.1738 C   0  0  0  0  0  0  0  0  0  0  0  0
    0.0197   63.7351   88.7408 C   0  0  0  0  0  0  0  0  0  0  0  0
   -2.1960   62.8599   82.6522 C   0  0  0  0  0  0  0  0  0  0  0  0
   -1.2770   62.8006   81.4123 C   0  0  0  0  0  0  0  0  0  0  0  0
   -0.6091   61.4169   81.2698 C   0  0  0  0  0  0  0  0  0  0  0  0
   -0.2537   61.1015   79.8197 C   0  0  0  0  0  0  0  0  0  0  0  0
   -1.5084   61.0306   78.9310 C   0  0  0  0  0  0  0  0  0  0  0  0
   -2.6140   61.9950   79.3976 C   0  0  0  0  0  0  0  0  0  0  0  0
   -2.0480   63.2016   80.1382 C   0  0  0  0  0  0  0  0  0  0  0  0
   -2.0642   59.6106   78.8411 C   0  0  0  0  0  0  0  0  0  0  0  0
   -1.8878   58.8492   77.8925 O   0  0  0  0  0  0  0  0  0  0  0  0
   -2.8029   59.2283   79.9416 N   0  0  0  0  0  0  0  0  0  0  0  0
   -3.4387   57.9680   79.8178 O   0  0  0  0  0  0  0  0  0  0  0  0
   -3.2877   59.9105   80.5150 H   0  0  0  0  0  0  0  0  0  0  0  0
   -3.1188   57.6557   78.9416 H   0  0  0  0  0  0  0  0  0  0  0  0
 22 23  1  0  0  0
 23 21  1  0  0  0
 21  1  1  0  0  0
  1  2  1  0  0  0
  2  3  2  0  0  0
  3  4  1  0  0  0
  4 24  1  0  0  0
 24 25  1  0  0  0
 25 26  1  0  0  0
 26 27  1  0  0  0
 27 28  1  0  0  0
 28 31  1  0  0  0
 31 32  2  0  0  0
 31 33  1  0  0  0
 33 34  1  0  0  0
 28 29  1  0  0  0
 29 30  1  0  0  0
  4  5  2  0  0  0
  5  6  1  0  0  0
  6  7  1  0  0  0
  7  8  2  0  0  0
  8  9  1  0  0  0
  9 10  1  0  0  0
 10 19  1  0  0  0
 19 20  1  0  0  0
 10 11  2  0  0  0
 11 12  1  0  0  0
 12 13  1  0  0  0
 12 14  1  0  0  0
 14 15  1  0  0  0
 15 16  2  0  0  0
 15 17  1  0  0  0
  6  1  2  0  0  0
 17  7  1  0  0  0
 30 25  1  0  0  0
 14  9  2  0  0  0
 33 35  1  0  0  0
 34 36  1  0  0  0
 17 18  1  0  0  0
M  END
> <minimizedAffinity>
-11.01094

$$$$



 36 39  0  0  0  0  0  0  0  0999 V2000
    0.9325   66.5032   80.9879 C   0  0  0  0  0  0  0  0  0  0  0  0
    1.7577   67.6327   80.8927 C   0  0  0  0  0  0  0  0  0  0  0  0
    2.3676   68.1746   82.0276 C   0  0  0  0  0  0  0  0  0  0  0  0
    2.1711   67.5980   83.2829 C   0  0  0  0  0  0  0  0  0  0  0  0
    1.3502   66.4677   83.3826 C   0  0  0  0  0  0  0  0  0  0  0  0
    0.7276   65.9058   82.2503 C   0  0  0  0  0  0  0  0  0  0  0  0
   -0.1342   64.6913   82.4849 C   0  0  0  0  0  0  0  0  0  0  0  0
   -0.3813   64.2999   83.7067 N   0  0  0  0  0  0  0  0  0  0  0  0
   -1.1888   63.1659   83.7923 C   0  0  0  0  0  0  0  0  0  0  0  0
   -1.6571   62.4784   84.9236 C   0  0  0  0  0  0  0  0  0  0  0  0
   -2.4123   61.4243   84.5582 N   0  0  0  0  0  0  0  0  0  0  0  0
   -2.4117   61.4740   83.2025 N   0  0  0  0  0  0  0  0  0  0  0  0
   -3.1390   60.4837   82.4461 C   0  0  0  0  0  0  0  0  0  0  0  0
   -1.6825   62.5082   82.7069 C   0  0  0  0  0  0  0  0  0  0  0  0
   -1.4222   62.9234   81.3786 C   0  0  0  0  0  0  0  0  0  0  0  0
   -1.8463   62.3875   80.3616 O   0  0  0  0  0  0  0  0  0  0  0  0
   -0.6182   64.0395   81.3546 N   0  0  0  0  0  0  0  0  0  0  0  0
   -0.4052   64.4103   80.4382 H   0  0  0  0  0  0  0  0  0  0  0  0
   -1.4131   62.7871   86.3587 C   0  0  0  0  0  0  0  0  0  0  0  0
   -2.7057   62.9506   87.1433 C   0  0  0  0  0  0  0  0  0  0  0  0
    0.3162   65.9325   79.9018 O   0  0  0  0  0  0  0  0  0  0  0  0
    0.2784   64.6512   77.8950 C   0  0  0  0  0  0  0  0  0  0  0  0
    1.1353   65.5078   78.8099 C   0  0  0  0  0  0  0  0  0  0  0  0
    2.8254   68.1855   84.5114 C   0  0  0  0  0  0  0  0  0  0  0  0
    4.3411   67.9024   84.5986 C   0  0  0  0  0  0  0  0  0  0  0  0
    4.8759   68.1241   86.0290 C   0  0  0  0  0  0  0  0  0  0  0  0
    6.1161   67.2812   86.3116 C   0  0  0  0  0  0  0  0  0  0  0  0
    5.8086   65.7753   86.2312 C   0  0  0  0  0  0  0  0  0  0  0  0
    4.7184   65.4529   85.1931 C   0  0  0  0  0  0  0  0  0  0  0  0
    4.6664   66.4885   84.0753 C   0  0  0  0  0  0  0  0  0  0  0  0
    5.4150   65.2003   87.5907 C   0  0  0  0  0  0  0  0  0  0  0  0
    4.3046   64.7502   87.8647 O   0  0  0  0  0  0  0  0  0  0  0  0
    6.4323   65.2202   88.5222 N   0  0  0  0  0  0  0  0  0  0  0  0
    6.0481   64.8180   89.8255 O   0  0  0  0  0  0  0  0  0  0  0  0
    7.1769   65.9077   88.4762 H   0  0  0  0  0  0  0  0  0  0  0  0
    5.1066   64.5630   89.6984 H   0  0  0  0  0  0  0  0  0  0  0  0
 22 23  1  0  0  0
 23 21  1  0  0  0
 21  1  1  0  0  0
  1  2  1  0  0  0
  2  3  2  0  0  0
  3  4  1  0  0  0
  4 24  1  0  0  0
 24 25  1  0  0  0
 25 26  1  0  0  0
 26 27  1  0  0  0
 27 28  1  0  0  0
 28 31  1  0  0  0
 31 32  2  0  0  0
 31 33  1  0  0  0
 33 34  1  0  0  0
 28 29  1  0  0  0
 29 30  1  0  0  0
  4  5  2  0  0  0
  5  6  1  0  0  0
  6  7  1  0  0  0
  7  8  2  0  0  0
  8  9  1  0  0  0
  9 10  1  0  0  0
 10 19  1  0  0  0
 19 20  1  0  0  0
 10 11  2  0  0  0
 11 12  1  0  0  0
 12 13  1  0  0  0
 12 14  1  0  0  0
 14 15  1  0  0  0
 15 16  2  0  0  0
 15 17  1  0  0  0
  6  1  2  0  0  0
 17  7  1  0  0  0
 30 25  1  0  0  0
 14  9  2  0  0  0
 33 35  1  0  0  0
 34 36  1  0  0  0
 17 18  1  0  0  0
M  END
> <minimizedAffinity>
-10.98052

$$$$



 36 39  0  0  0  0  0  0  0  0999 V2000
   -0.2823   62.8613   85.6993 C   0  0  0  0  0  0  0  0  0  0  0  0
    0.2586   63.6646   86.7132 C   0  0  0  0  0  0  0  0  0  0  0  0
    0.8621   64.8895   86.4145 C   0  0  0  0  0  0  0  0  0  0  0  0
    0.9349   65.3424   85.0968 C   0  0  0  0  0  0  0  0  0  0  0  0
    0.3931   64.5451   84.0809 C   0  0  0  0  0  0  0  0  0  0  0  0
   -0.2204   63.3081   84.3618 C   0  0  0  0  0  0  0  0  0  0  0  0
   -0.7641   62.5396   83.1842 C   0  0  0  0  0  0  0  0  0  0  0  0
   -0.1888   62.6530   82.0166 N   0  0  0  0  0  0  0  0  0  0  0  0
   -0.7841   61.8942   81.0090 C   0  0  0  0  0  0  0  0  0  0  0  0
   -0.4365   61.7670   79.6545 C   0  0  0  0  0  0  0  0  0  0  0  0
   -1.2828   60.9285   79.0252 N   0  0  0  0  0  0  0  0  0  0  0  0
   -2.1423   60.5372   79.9992 N   0  0  0  0  0  0  0  0  0  0  0  0
   -3.2064   59.6129   79.6907 C   0  0  0  0  0  0  0  0  0  0  0  0
   -1.8736   61.1015   81.2060 C   0  0  0  0  0  0  0  0  0  0  0  0
   -2.5048   60.9702   82.4665 C   0  0  0  0  0  0  0  0  0  0  0  0
   -3.4757   60.2649   82.7145 O   0  0  0  0  0  0  0  0  0  0  0  0
   -1.8811   61.7432   83.4183 N   0  0  0  0  0  0  0  0  0  0  0  0
   -2.2626   61.6854   84.3531 H   0  0  0  0  0  0  0  0  0  0  0  0
    0.6836   62.4187   78.9230 C   0  0  0  0  0  0  0  0  0  0  0  0
    0.2946   62.8214   77.5089 C   0  0  0  0  0  0  0  0  0  0  0  0
   -0.8886   61.6541   85.9439 O   0  0  0  0  0  0  0  0  0  0  0  0
   -2.9144   62.4972   86.8690 C   0  0  0  0  0  0  0  0  0  0  0  0
   -1.7465   61.5508   87.0827 C   0  0  0  0  0  0  0  0  0  0  0  0
    1.5913   66.6636   84.7715 C   0  0  0  0  0  0  0  0  0  0  0  0
    2.1279   66.7469   83.3257 C   0  0  0  0  0  0  0  0  0  0  0  0
    1.2068   67.6011   82.4296 C   0  0  0  0  0  0  0  0  0  0  0  0
    1.9668   68.2304   81.2656 C   0  0  0  0  0  0  0  0  0  0  0  0
    3.0547   69.2017   81.7577 C   0  0  0  0  0  0  0  0  0  0  0  0
    3.6662   68.7666   83.1019 C   0  0  0  0  0  0  0  0  0  0  0  0
    3.5828   67.2583   83.3088 C   0  0  0  0  0  0  0  0  0  0  0  0
    2.5343   70.6339   81.8651 C   0  0  0  0  0  0  0  0  0  0  0  0
    2.3732   71.3927   80.9117 O   0  0  0  0  0  0  0  0  0  0  0  0
    2.2449   71.0287   83.1547 N   0  0  0  0  0  0  0  0  0  0  0  0
    1.8916   72.3943   83.2895 O   0  0  0  0  0  0  0  0  0  0  0  0
    2.7183   70.6166   83.9518 H   0  0  0  0  0  0  0  0  0  0  0  0
    1.8949   72.7059   82.3565 H   0  0  0  0  0  0  0  0  0  0  0  0
 22 23  1  0  0  0
 23 21  1  0  0  0
 21  1  1  0  0  0
  1  2  1  0  0  0
  2  3  2  0  0  0
  3  4  1  0  0  0
  4 24  1  0  0  0
 24 25  1  0  0  0
 25 26  1  0  0  0
 26 27  1  0  0  0
 27 28  1  0  0  0
 28 31  1  0  0  0
 31 32  2  0  0  0
 31 33  1  0  0  0
 33 34  1  0  0  0
 28 29  1  0  0  0
 29 30  1  0  0  0
  4  5  2  0  0  0
  5  6  1  0  0  0
  6  7  1  0  0  0
  7  8  2  0  0  0
  8  9  1  0  0  0
  9 10  1  0  0  0
 10 19  1  0  0  0
 19 20  1  0  0  0
 10 11  2  0  0  0
 11 12  1  0  0  0
 12 13  1  0  0  0
 12 14  1  0  0  0
 14 15  1  0  0  0
 15 16  2  0  0  0
 15 17  1  0  0  0
  6  1  2  0  0  0
 17  7  1  0  0  0
 30 25  1  0  0  0
 14  9  2  0  0  0
 33 35  1  0  0  0
 34 36  1  0  0  0
 17 18  1  0  0  0
M  END
> <minimizedAffinity>
-10.81159

$$$$



 36 39  0  0  0  0  0  0  0  0999 V2000
    2.0363   66.5400   83.4696 C   0  0  0  0  0  0  0  0  0  0  0  0
    2.2770   67.2204   82.2675 C   0  0  0  0  0  0  0  0  0  0  0  0
    1.5790   66.8899   81.1025 C   0  0  0  0  0  0  0  0  0  0  0  0
    0.6212   65.8753   81.1126 C   0  0  0  0  0  0  0  0  0  0  0  0
    0.3749   65.1949   82.3116 C   0  0  0  0  0  0  0  0  0  0  0  0
    1.0671   65.5142   83.4967 C   0  0  0  0  0  0  0  0  0  0  0  0
    0.7163   64.7100   84.7227 C   0  0  0  0  0  0  0  0  0  0  0  0
   -0.3999   64.0316   84.7537 N   0  0  0  0  0  0  0  0  0  0  0  0
   -0.6109   63.3302   85.9406 C   0  0  0  0  0  0  0  0  0  0  0  0
   -1.6809   62.5033   86.3187 C   0  0  0  0  0  0  0  0  0  0  0  0
   -1.4901   62.0208   87.5621 N   0  0  0  0  0  0  0  0  0  0  0  0
   -0.2980   62.5473   87.9394 N   0  0  0  0  0  0  0  0  0  0  0  0
    0.2452   62.2389   89.2400 C   0  0  0  0  0  0  0  0  0  0  0  0
    0.2584   63.3433   86.9887 C   0  0  0  0  0  0  0  0  0  0  0  0
    1.4710   64.0738   86.9663 C   0  0  0  0  0  0  0  0  0  0  0  0
    2.3017   64.1160   87.8662 O   0  0  0  0  0  0  0  0  0  0  0  0
    1.6233   64.7490   85.7775 N   0  0  0  0  0  0  0  0  0  0  0  0
    2.4792   65.2783   85.6770 H   0  0  0  0  0  0  0  0  0  0  0  0
   -2.8948   62.1472   85.5351 C   0  0  0  0  0  0  0  0  0  0  0  0
   -2.5618   61.7243   84.1126 C   0  0  0  0  0  0  0  0  0  0  0  0
    2.6928   66.8319   84.6396 O   0  0  0  0  0  0  0  0  0  0  0  0
    4.8827   65.9629   84.9855 C   0  0  0  0  0  0  0  0  0  0  0  0
    4.0774   67.1795   84.5652 C   0  0  0  0  0  0  0  0  0  0  0  0
   -0.1306   65.5132   79.8532 C   0  0  0  0  0  0  0  0  0  0  0  0
    0.2418   64.1243   79.2897 C   0  0  0  0  0  0  0  0  0  0  0  0
   -0.5576   63.0008   79.9822 C   0  0  0  0  0  0  0  0  0  0  0  0
   -0.7208   61.7788   79.0829 C   0  0  0  0  0  0  0  0  0  0  0  0
   -1.5233   62.1127   77.8127 C   0  0  0  0  0  0  0  0  0  0  0  0
   -1.2922   63.5578   77.3347 C   0  0  0  0  0  0  0  0  0  0  0  0
    0.0726   64.0905   77.7571 C   0  0  0  0  0  0  0  0  0  0  0  0
   -3.0185   61.8625   78.0005 C   0  0  0  0  0  0  0  0  0  0  0  0
   -3.8971   62.2788   77.2486 O   0  0  0  0  0  0  0  0  0  0  0  0
   -3.3237   61.1063   79.1131 N   0  0  0  0  0  0  0  0  0  0  0  0
   -4.7097   60.9789   79.3790 O   0  0  0  0  0  0  0  0  0  0  0  0
   -2.7175   61.0953   79.9265 H   0  0  0  0  0  0  0  0  0  0  0  0
   -5.1148   61.4511   78.6171 H   0  0  0  0  0  0  0  0  0  0  0  0
 22 23  1  0  0  0
 23 21  1  0  0  0
 21  1  1  0  0  0
  1  2  1  0  0  0
  2  3  2  0  0  0
  3  4  1  0  0  0
  4 24  1  0  0  0
 24 25  1  0  0  0
 25 26  1  0  0  0
 26 27  1  0  0  0
 27 28  1  0  0  0
 28 31  1  0  0  0
 31 32  2  0  0  0
 31 33  1  0  0  0
 33 34  1  0  0  0
 28 29  1  0  0  0
 29 30  1  0  0  0
  4  5  2  0  0  0
  5  6  1  0  0  0
  6  7  1  0  0  0
  7  8  2  0  0  0
  8  9  1  0  0  0
  9 10  1  0  0  0
 10 19  1  0  0  0
 19 20  1  0  0  0
 10 11  2  0  0  0
 11 12  1  0  0  0
 12 13  1  0  0  0
 12 14  1  0  0  0
 14 15  1  0  0  0
 15 16  2  0  0  0
 15 17  1  0  0  0
  6  1  2  0  0  0
 17  7  1  0  0  0
 30 25  1  0  0  0
 14  9  2  0  0  0
 33 35  1  0  0  0
 34 36  1  0  0  0
 17 18  1  0  0  0
M  END
> <minimizedAffinity>
-10.74000

$$$$



 36 39  0  0  0  0  0  0  0  0999 V2000
    3.9144   66.5471   84.4165 C   0  0  0  0  0  0  0  0  0  0  0  0
    4.7760   67.6438   84.2730 C   0  0  0  0  0  0  0  0  0  0  0  0
    4.2920   68.8889   83.8616 C   0  0  0  0  0  0  0  0  0  0  0  0
    2.9355   69.0682   83.5885 C   0  0  0  0  0  0  0  0  0  0  0  0
    2.0703   67.9765   83.7334 C   0  0  0  0  0  0  0  0  0  0  0  0
    2.5387   66.7140   84.1483 C   0  0  0  0  0  0  0  0  0  0  0  0
    1.5118   65.6163   84.2651 C   0  0  0  0  0  0  0  0  0  0  0  0
    1.1569   65.1857   85.4465 N   0  0  0  0  0  0  0  0  0  0  0  0
    0.2017   64.1697   85.4223 C   0  0  0  0  0  0  0  0  0  0  0  0
   -0.4075   63.4825   86.4845 C   0  0  0  0  0  0  0  0  0  0  0  0
   -1.2790   62.5668   86.0183 N   0  0  0  0  0  0  0  0  0  0  0  0
   -1.2074   62.7018   84.6702 N   0  0  0  0  0  0  0  0  0  0  0  0
   -2.0241   61.8702   83.8198 C   0  0  0  0  0  0  0  0  0  0  0  0
   -0.3236   63.6558   84.2758 C   0  0  0  0  0  0  0  0  0  0  0  0
    0.0527   64.1149   82.9905 C   0  0  0  0  0  0  0  0  0  0  0  0
   -0.3907   63.7076   81.9232 O   0  0  0  0  0  0  0  0  0  0  0  0
    0.9990   65.1097   83.0747 N   0  0  0  0  0  0  0  0  0  0  0  0
    1.3031   65.5053   82.1949 H   0  0  0  0  0  0  0  0  0  0  0  0
   -0.1928   63.6633   87.9458 C   0  0  0  0  0  0  0  0  0  0  0  0
   -0.1117   62.3378   88.6872 C   0  0  0  0  0  0  0  0  0  0  0  0
    4.3420   65.3071   84.8222 O   0  0  0  0  0  0  0  0  0  0  0  0
    5.0582   65.0822   87.0820 C   0  0  0  0  0  0  0  0  0  0  0  0
    5.5116   65.2335   85.6409 C   0  0  0  0  0  0  0  0  0  0  0  0
    2.4114   70.4118   83.1388 C   0  0  0  0  0  0  0  0  0  0  0  0
    2.1364   70.4906   81.6210 C   0  0  0  0  0  0  0  0  0  0  0  0
    2.9007   69.3935   80.8507 C   0  0  0  0  0  0  0  0  0  0  0  0
    2.2029   69.0211   79.5457 C   0  0  0  0  0  0  0  0  0  0  0  0
    0.8052   68.4286   79.7991 C   0  0  0  0  0  0  0  0  0  0  0  0
    0.1270   69.0338   81.0416 C   0  0  0  0  0  0  0  0  0  0  0  0
    0.6216   70.4460   81.3347 C   0  0  0  0  0  0  0  0  0  0  0  0
    0.8445   66.9064   79.9206 C   0  0  0  0  0  0  0  0  0  0  0  0
    1.6844   66.2774   80.5607 O   0  0  0  0  0  0  0  0  0  0  0  0
   -0.1680   66.2644   79.2384 N   0  0  0  0  0  0  0  0  0  0  0  0
   -0.0691   64.8509   79.2268 O   0  0  0  0  0  0  0  0  0  0  0  0
   -0.6008   66.6811   78.4209 H   0  0  0  0  0  0  0  0  0  0  0  0
    0.7197   64.6902   79.7922 H   0  0  0  0  0  0  0  0  0  0  0  0
 22 23  1  0  0  0
 23 21  1  0  0  0
 21  1  1  0  0  0
  1  2  1  0  0  0
  2  3  2  0  0  0
  3  4  1  0  0  0
  4 24  1  0  0  0
 24 25  1  0  0  0
 25 26  1  0  0  0
 26 27  1  0  0  0
 27 28  1  0  0  0
 28 31  1  0  0  0
 31 32  2  0  0  0
 31 33  1  0  0  0
 33 34  1  0  0  0
 28 29  1  0  0  0
 29 30  1  0  0  0
  4  5  2  0  0  0
  5  6  1  0  0  0
  6  7  1  0  0  0
  7  8  2  0  0  0
  8  9  1  0  0  0
  9 10  1  0  0  0
 10 19  1  0  0  0
 19 20  1  0  0  0
 10 11  2  0  0  0
 11 12  1  0  0  0
 12 13  1  0  0  0
 12 14  1  0  0  0
 14 15  1  0  0  0
 15 16  2  0  0  0
 15 17  1  0  0  0
  6  1  2  0  0  0
 17  7  1  0  0  0
 30 25  1  0  0  0
 14  9  2  0  0  0
 33 35  1  0  0  0
 34 36  1  0  0  0
 17 18  1  0  0  0
M  END
> <minimizedAffinity>
-10.72255

$$$$



 36 39  0  0  0  0  0  0  0  0999 V2000
   -0.0901   63.8233   84.5897 C   0  0  0  0  0  0  0  0  0  0  0  0
    0.6224   64.7857   85.3190 C   0  0  0  0  0  0  0  0  0  0  0  0
    1.3278   65.8026   84.6693 C   0  0  0  0  0  0  0  0  0  0  0  0
    1.3338   65.8843   83.2764 C   0  0  0  0  0  0  0  0  0  0  0  0
    0.6209   64.9271   82.5436 C   0  0  0  0  0  0  0  0  0  0  0  0
   -0.0973   63.8953   83.1801 C   0  0  0  0  0  0  0  0  0  0  0  0
   -0.8232   62.9240   82.2841 C   0  0  0  0  0  0  0  0  0  0  0  0
   -0.8674   63.1410   80.9965 N   0  0  0  0  0  0  0  0  0  0  0  0
   -1.5676   62.1730   80.2766 C   0  0  0  0  0  0  0  0  0  0  0  0
   -1.8105   62.0788   78.8968 C   0  0  0  0  0  0  0  0  0  0  0  0
   -2.5378   60.9796   78.6179 N   0  0  0  0  0  0  0  0  0  0  0  0
   -2.7314   60.3980   79.8283 N   0  0  0  0  0  0  0  0  0  0  0  0
   -3.4803   59.1686   79.9240 C   0  0  0  0  0  0  0  0  0  0  0  0
   -2.1634   61.0912   80.8501 C   0  0  0  0  0  0  0  0  0  0  0  0
   -2.1214   60.8453   82.2437 C   0  0  0  0  0  0  0  0  0  0  0  0
   -2.6218   59.8868   82.8202 O   0  0  0  0  0  0  0  0  0  0  0  0
   -1.4254   61.8323   82.9024 N   0  0  0  0  0  0  0  0  0  0  0  0
   -1.3329   61.7147   83.9026 H   0  0  0  0  0  0  0  0  0  0  0  0
   -1.3728   63.0040   77.8166 C   0  0  0  0  0  0  0  0  0  0  0  0
    0.1187   62.9024   77.5367 C   0  0  0  0  0  0  0  0  0  0  0  0
   -0.8012   62.8095   85.1828 O   0  0  0  0  0  0  0  0  0  0  0  0
   -2.6240   62.8748   86.7138 C   0  0  0  0  0  0  0  0  0  0  0  0
   -1.1132   62.9307   86.5726 C   0  0  0  0  0  0  0  0  0  0  0  0
    2.0998   66.9796   82.5723 C   0  0  0  0  0  0  0  0  0  0  0  0
    1.3962   68.3537   82.6199 C   0  0  0  0  0  0  0  0  0  0  0  0
    2.3537   69.4621   83.1055 C   0  0  0  0  0  0  0  0  0  0  0  0
    1.9533   70.8353   82.5738 C   0  0  0  0  0  0  0  0  0  0  0  0
    2.0263   70.8918   81.0374 C   0  0  0  0  0  0  0  0  0  0  0  0
    1.6890   69.5397   80.3831 C   0  0  0  0  0  0  0  0  0  0  0  0
    0.7658   68.6951   81.2544 C   0  0  0  0  0  0  0  0  0  0  0  0
    3.3898   71.3775   80.5488 C   0  0  0  0  0  0  0  0  0  0  0  0
    4.0294   72.2947   81.0590 O   0  0  0  0  0  0  0  0  0  0  0  0
    3.8710   70.6866   79.4562 N   0  0  0  0  0  0  0  0  0  0  0  0
    5.0674   71.2100   78.9061 O   0  0  0  0  0  0  0  0  0  0  0  0
    3.2438   70.2382   78.7969 H   0  0  0  0  0  0  0  0  0  0  0  0
    5.2799   71.9449   79.5245 H   0  0  0  0  0  0  0  0  0  0  0  0
 22 23  1  0  0  0
 23 21  1  0  0  0
 21  1  1  0  0  0
  1  2  1  0  0  0
  2  3  2  0  0  0
  3  4  1  0  0  0
  4 24  1  0  0  0
 24 25  1  0  0  0
 25 26  1  0  0  0
 26 27  1  0  0  0
 27 28  1  0  0  0
 28 31  1  0  0  0
 31 32  2  0  0  0
 31 33  1  0  0  0
 33 34  1  0  0  0
 28 29  1  0  0  0
 29 30  1  0  0  0
  4  5  2  0  0  0
  5  6  1  0  0  0
  6  7  1  0  0  0
  7  8  2  0  0  0
  8  9  1  0  0  0
  9 10  1  0  0  0
 10 19  1  0  0  0
 19 20  1  0  0  0
 10 11  2  0  0  0
 11 12  1  0  0  0
 12 13  1  0  0  0
 12 14  1  0  0  0
 14 15  1  0  0  0
 15 16  2  0  0  0
 15 17  1  0  0  0
  6  1  2  0  0  0
 17  7  1  0  0  0
 30 25  1  0  0  0
 14  9  2  0  0  0
 33 35  1  0  0  0
 34 36  1  0  0  0
 17 18  1  0  0  0
M  END
> <minimizedAffinity>
-10.61924

$$$$



 36 39  0  0  0  0  0  0  0  0999 V2000
   -0.1725   63.5990   85.9871 C   0  0  0  0  0  0  0  0  0  0  0  0
   -1.2967   62.7657   85.9011 C   0  0  0  0  0  0  0  0  0  0  0  0
   -1.9801   62.6034   84.6926 C   0  0  0  0  0  0  0  0  0  0  0  0
   -1.5534   63.2660   83.5413 C   0  0  0  0  0  0  0  0  0  0  0  0
   -0.4290   64.0970   83.6213 C   0  0  0  0  0  0  0  0  0  0  0  0
    0.2741   64.2725   84.8298 C   0  0  0  0  0  0  0  0  0  0  0  0
    1.4668   65.1939   84.7909 C   0  0  0  0  0  0  0  0  0  0  0  0
    1.4218   66.2799   84.0659 N   0  0  0  0  0  0  0  0  0  0  0  0
    2.5853   67.0476   84.1120 C   0  0  0  0  0  0  0  0  0  0  0  0
    2.8878   68.2615   83.4743 C   0  0  0  0  0  0  0  0  0  0  0  0
    4.1346   68.6638   83.7887 N   0  0  0  0  0  0  0  0  0  0  0  0
    4.5899   67.6984   84.6260 N   0  0  0  0  0  0  0  0  0  0  0  0
    5.9173   67.7965   85.1828 C   0  0  0  0  0  0  0  0  0  0  0  0
    3.6843   66.7079   84.8408 C   0  0  0  0  0  0  0  0  0  0  0  0
    3.7444   65.5344   85.6305 C   0  0  0  0  0  0  0  0  0  0  0  0
    4.6935   65.1791   86.3194 O   0  0  0  0  0  0  0  0  0  0  0  0
    2.5751   64.8150   85.5424 N   0  0  0  0  0  0  0  0  0  0  0  0
    2.5332   63.9712   86.0984 H   0  0  0  0  0  0  0  0  0  0  0  0
    2.0277   69.0669   82.5654 C   0  0  0  0  0  0  0  0  0  0  0  0
    2.0341   68.5351   81.1406 C   0  0  0  0  0  0  0  0  0  0  0  0
    0.5337   63.7860   87.1496 O   0  0  0  0  0  0  0  0  0  0  0  0
    0.4098   62.3752   89.0639 C   0  0  0  0  0  0  0  0  0  0  0  0
   -0.1551   63.6130   88.3902 C   0  0  0  0  0  0  0  0  0  0  0  0
   -2.2938   63.0958   82.2354 C   0  0  0  0  0  0  0  0  0  0  0  0
   -1.9447   61.7867   81.4939 C   0  0  0  0  0  0  0  0  0  0  0  0
   -2.4635   61.8050   80.0408 C   0  0  0  0  0  0  0  0  0  0  0  0
   -1.6348   60.9060   79.1277 C   0  0  0  0  0  0  0  0  0  0  0  0
   -0.1747   61.3839   79.0345 C   0  0  0  0  0  0  0  0  0  0  0  0
    0.3142   62.0364   80.3404 C   0  0  0  0  0  0  0  0  0  0  0  0
   -0.4298   61.5054   81.5607 C   0  0  0  0  0  0  0  0  0  0  0  0
    0.0376   62.3437   77.8652 C   0  0  0  0  0  0  0  0  0  0  0  0
    0.2333   61.9969   76.7024 O   0  0  0  0  0  0  0  0  0  0  0  0
   -0.0102   63.6760   78.2194 N   0  0  0  0  0  0  0  0  0  0  0  0
    0.3191   64.5770   77.1763 O   0  0  0  0  0  0  0  0  0  0  0  0
    0.2295   63.9823   79.1563 H   0  0  0  0  0  0  0  0  0  0  0  0
    0.4511   63.9737   76.4106 H   0  0  0  0  0  0  0  0  0  0  0  0
 22 23  1  0  0  0
 23 21  1  0  0  0
 21  1  1  0  0  0
  1  2  1  0  0  0
  2  3  2  0  0  0
  3  4  1  0  0  0
  4 24  1  0  0  0
 24 25  1  0  0  0
 25 26  1  0  0  0
 26 27  1  0  0  0
 27 28  1  0  0  0
 28 31  1  0  0  0
 31 32  2  0  0  0
 31 33  1  0  0  0
 33 34  1  0  0  0
 28 29  1  0  0  0
 29 30  1  0  0  0
  4  5  2  0  0  0
  5  6  1  0  0  0
  6  7  1  0  0  0
  7  8  2  0  0  0
  8  9  1  0  0  0
  9 10  1  0  0  0
 10 19  1  0  0  0
 19 20  1  0  0  0
 10 11  2  0  0  0
 11 12  1  0  0  0
 12 13  1  0  0  0
 12 14  1  0  0  0
 14 15  1  0  0  0
 15 16  2  0  0  0
 15 17  1  0  0  0
  6  1  2  0  0  0
 17  7  1  0  0  0
 30 25  1  0  0  0
 14  9  2  0  0  0
 33 35  1  0  0  0
 34 36  1  0  0  0
 17 18  1  0  0  0
M  END
> <minimizedAffinity>
-10.56934

$$$$
