


 44 47  0  0  0  0  0  0  0  0999 V2000
    3.5549   67.4468   83.9419 C   0  0  0  0  0  0  0  0  0  0  0  0
    4.2489   68.6159   83.5928 C   0  0  0  0  0  0  0  0  0  0  0  0
    3.7794   69.4527   82.5758 C   0  0  0  0  0  0  0  0  0  0  0  0
    2.6120   69.1194   81.8926 C   0  0  0  0  0  0  0  0  0  0  0  0
    1.9323   67.9405   82.1962 C   0  0  0  0  0  0  0  0  0  0  0  0
    2.3797   67.1061   83.2357 C   0  0  0  0  0  0  0  0  0  0  0  0
    1.5233   65.9085   83.5426 C   0  0  0  0  0  0  0  0  0  0  0  0
    1.0392   65.2060   82.5554 N   0  0  0  0  0  0  0  0  0  0  0  0
    0.2507   64.1245   82.9479 C   0  0  0  0  0  0  0  0  0  0  0  0
   -0.3957   63.1985   82.1045 C   0  0  0  0  0  0  0  0  0  0  0  0
   -1.0548   62.3250   82.9590 C   0  0  0  0  0  0  0  0  0  0  0  0
   -0.8162   62.7137   84.2582 N   0  0  0  0  0  0  0  0  0  0  0  0
   -1.3315   62.0530   85.4357 C   0  0  0  0  0  0  0  0  0  0  0  0
   -0.0120   63.8201   84.2549 C   0  0  0  0  0  0  0  0  0  0  0  0
    0.5114   64.5910   85.3328 C   0  0  0  0  0  0  0  0  0  0  0  0
    0.3022   64.3968   86.5254 O   0  0  0  0  0  0  0  0  0  0  0  0
    1.2979   65.6239   84.8812 N   0  0  0  0  0  0  0  0  0  0  0  0
    1.6774   66.2314   85.5949 H   0  0  0  0  0  0  0  0  0  0  0  0
   -0.3674   63.1541   80.6125 C   0  0  0  0  0  0  0  0  0  0  0  0
   -0.8759   61.8368   80.0212 C   0  0  0  0  0  0  0  0  0  0  0  0
   -1.1972   61.9324   78.5362 C   0  0  0  0  0  0  0  0  0  0  0  0
    2.0034   70.1684   80.5901 S   0  0  0  0  0  0  0  0  0  0  0  0
    2.8678   69.9825   79.4436 O   0  0  0  0  0  0  0  0  0  0  0  0
    0.5759   69.9585   80.4959 O   0  0  0  0  0  0  0  0  0  0  0  0
    2.2795   71.7398   81.1831 N   0  0  0  0  0  0  0  0  0  0  0  0
    3.6151   72.3238   80.9162 C   0  0  0  0  0  0  0  0  0  0  0  0
    3.7759   73.6608   81.6445 C   0  0  0  0  0  0  0  0  0  0  0  0
    2.4488   74.4428   81.7449 C   0  0  0  0  0  0  0  0  0  0  0  0
    1.4118   73.5928   82.5148 C   0  0  0  0  0  0  0  0  0  0  0  0
    1.7182   72.0917   82.5011 C   0  0  0  0  0  0  0  0  0  0  0  0
    1.9343   74.9079   80.3442 C   0  0  0  0  0  0  0  0  0  0  0  0
    0.4166   74.6846   80.1482 C   0  0  0  0  0  0  0  0  0  0  0  0
   -0.1888   75.9082   79.7286 O   0  0  0  0  0  0  0  0  0  0  0  0
   -1.3828   75.7060   78.9962 N   0  0  0  0  0  0  0  0  0  0  0  0
   -2.0531   74.7119   79.2752 O   0  0  0  0  0  0  0  0  0  0  0  0
   -1.5838   76.5890   78.1656 O   0  0  0  0  0  0  0  0  0  0  0  0
    2.2068   76.3180   80.2617 O   0  0  0  0  0  0  0  0  0  0  0  0
    3.4294   76.6392   79.6229 N   0  0  0  0  0  0  0  0  0  0  0  0
    3.5478   76.3249   78.4396 O   0  0  0  0  0  0  0  0  0  0  0  0
    4.2124   77.2221   80.3688 O   0  0  0  0  0  0  0  0  0  0  0  0
    3.9604   66.5994   84.9410 O   0  0  0  0  0  0  0  0  0  0  0  0
    5.0553   66.9982   85.7692 C   0  0  0  0  0  0  0  0  0  0  0  0
    7.4586   66.6148   85.0624 C   0  0  0  0  0  0  0  0  0  0  0  0
    6.1847   65.9828   85.6060 C   0  0  0  0  0  0  0  0  0  0  0  0
 43 44  1  0  0  0
 44 42  1  0  0  0
 42 41  1  0  0  0
 41  1  1  0  0  0
  1  2  1  0  0  0
  2  3  2  0  0  0
  3  4  1  0  0  0
  4 22  1  0  0  0
 22 23  2  0  0  0
 22 24  2  0  0  0
 22 25  1  0  0  0
 25 26  1  0  0  0
 26 27  1  0  0  0
 27 28  1  0  0  0
 28 31  1  0  0  0
 31 32  1  0  0  0
 32 33  1  0  0  0
 33 34  1  0  0  0
 34 35  2  0  0  0
 34 36  1  0  0  0
 31 37  1  0  0  0
 37 38  1  0  0  0
 38 39  2  0  0  0
 38 40  1  0  0  0
 28 29  1  0  0  0
 29 30  1  0  0  0
  4  5  2  0  0  0
  5  6  1  0  0  0
  6  7  1  0  0  0
  7  8  2  0  0  0
  8  9  1  0  0  0
  9 10  1  0  0  0
 10 19  1  0  0  0
 19 20  1  0  0  0
 20 21  1  0  0  0
 10 11  2  0  0  0
 11 12  1  0  0  0
 12 13  1  0  0  0
 12 14  1  0  0  0
 14 15  1  0  0  0
 15 16  2  0  0  0
 15 17  1  0  0  0
  6  1  2  0  0  0
 17  7  1  0  0  0
 30 25  1  0  0  0
 14  9  2  0  0  0
 17 18  1  0  0  0
M  CHG 1  34   1
M  CHG 1  36  -1
M  CHG 1  38   1
M  CHG 1  40  -1
M  END
> <minimizedAffinity>
-1.76360

$$$$



 44 47  0  0  0  0  0  0  0  0999 V2000
    2.4063   73.0471   81.3851 C   0  0  0  0  0  0  0  0  0  0  0  0
    2.9205   74.2907   80.9860 C   0  0  0  0  0  0  0  0  0  0  0  0
    4.1575   74.3823   80.3405 C   0  0  0  0  0  0  0  0  0  0  0  0
    4.8952   73.2259   80.0969 C   0  0  0  0  0  0  0  0  0  0  0  0
    4.4206   71.9864   80.5239 C   0  0  0  0  0  0  0  0  0  0  0  0
    3.1655   71.8794   81.1486 C   0  0  0  0  0  0  0  0  0  0  0  0
    2.7071   70.4874   81.4860 C   0  0  0  0  0  0  0  0  0  0  0  0
    3.2736   69.8566   82.4778 N   0  0  0  0  0  0  0  0  0  0  0  0
    2.7831   68.5700   82.7000 C   0  0  0  0  0  0  0  0  0  0  0  0
    3.2026   67.6647   83.6956 C   0  0  0  0  0  0  0  0  0  0  0  0
    2.4280   66.5283   83.5053 C   0  0  0  0  0  0  0  0  0  0  0  0
    1.5836   66.7427   82.4390 N   0  0  0  0  0  0  0  0  0  0  0  0
    0.6214   65.7915   81.9311 C   0  0  0  0  0  0  0  0  0  0  0  0
    1.7987   67.9988   81.9420 C   0  0  0  0  0  0  0  0  0  0  0  0
    1.1845   68.6851   80.8548 C   0  0  0  0  0  0  0  0  0  0  0  0
    0.3160   68.2334   80.1162 O   0  0  0  0  0  0  0  0  0  0  0  0
    1.6933   69.9531   80.7045 N   0  0  0  0  0  0  0  0  0  0  0  0
    1.3224   70.4862   79.9296 H   0  0  0  0  0  0  0  0  0  0  0  0
    4.2450   67.8832   84.7418 C   0  0  0  0  0  0  0  0  0  0  0  0
    5.4842   66.9997   84.5771 C   0  0  0  0  0  0  0  0  0  0  0  0
    6.5234   67.2175   85.6680 C   0  0  0  0  0  0  0  0  0  0  0  0
    6.4751   73.3238   79.2834 S   0  0  0  0  0  0  0  0  0  0  0  0
    7.2583   72.1865   79.7184 O   0  0  0  0  0  0  0  0  0  0  0  0
    6.2258   73.5713   77.8808 O   0  0  0  0  0  0  0  0  0  0  0  0
    7.1848   74.7157   79.9588 N   0  0  0  0  0  0  0  0  0  0  0  0
    7.5829   75.7831   79.0109 C   0  0  0  0  0  0  0  0  0  0  0  0
    8.3512   76.8911   79.7360 C   0  0  0  0  0  0  0  0  0  0  0  0
    7.8586   77.1024   81.1836 C   0  0  0  0  0  0  0  0  0  0  0  0
    8.0346   75.7889   81.9800 C   0  0  0  0  0  0  0  0  0  0  0  0
    8.1092   74.5406   81.0949 C   0  0  0  0  0  0  0  0  0  0  0  0
    6.3959   77.6512   81.2315 C   0  0  0  0  0  0  0  0  0  0  0  0
    6.0212   78.2668   82.5998 C   0  0  0  0  0  0  0  0  0  0  0  0
    4.7359   77.7862   82.9959 O   0  0  0  0  0  0  0  0  0  0  0  0
    4.6752   77.4526   84.3700 N   0  0  0  0  0  0  0  0  0  0  0  0
    4.5373   78.3790   85.1688 O   0  0  0  0  0  0  0  0  0  0  0  0
    4.7647   76.2432   84.5678 O   0  0  0  0  0  0  0  0  0  0  0  0
    6.3168   78.6781   80.2272 O   0  0  0  0  0  0  0  0  0  0  0  0
    5.1948   78.5696   79.3696 N   0  0  0  0  0  0  0  0  0  0  0  0
    4.0837   78.5295   79.8957 O   0  0  0  0  0  0  0  0  0  0  0  0
    5.5091   78.5493   78.1821 O   0  0  0  0  0  0  0  0  0  0  0  0
    1.1927   72.8974   82.0061 O   0  0  0  0  0  0  0  0  0  0  0  0
    0.1866   73.8878   81.7817 C   0  0  0  0  0  0  0  0  0  0  0  0
   -1.2550   74.6678   79.8488 C   0  0  0  0  0  0  0  0  0  0  0  0
   -0.6427   73.4736   80.5676 C   0  0  0  0  0  0  0  0  0  0  0  0
 43 44  1  0  0  0
 44 42  1  0  0  0
 42 41  1  0  0  0
 41  1  1  0  0  0
  1  2  1  0  0  0
  2  3  2  0  0  0
  3  4  1  0  0  0
  4 22  1  0  0  0
 22 23  2  0  0  0
 22 24  2  0  0  0
 22 25  1  0  0  0
 25 26  1  0  0  0
 26 27  1  0  0  0
 27 28  1  0  0  0
 28 31  1  0  0  0
 31 32  1  0  0  0
 32 33  1  0  0  0
 33 34  1  0  0  0
 34 35  2  0  0  0
 34 36  1  0  0  0
 31 37  1  0  0  0
 37 38  1  0  0  0
 38 39  2  0  0  0
 38 40  1  0  0  0
 28 29  1  0  0  0
 29 30  1  0  0  0
  4  5  2  0  0  0
  5  6  1  0  0  0
  6  7  1  0  0  0
  7  8  2  0  0  0
  8  9  1  0  0  0
  9 10  1  0  0  0
 10 19  1  0  0  0
 19 20  1  0  0  0
 20 21  1  0  0  0
 10 11  2  0  0  0
 11 12  1  0  0  0
 12 13  1  0  0  0
 12 14  1  0  0  0
 14 15  1  0  0  0
 15 16  2  0  0  0
 15 17  1  0  0  0
  6  1  2  0  0  0
 17  7  1  0  0  0
 30 25  1  0  0  0
 14  9  2  0  0  0
 17 18  1  0  0  0
M  CHG 1  34   1
M  CHG 1  36  -1
M  CHG 1  38   1
M  CHG 1  40  -1
M  END
> <minimizedAffinity>
-1.74942

$$$$



 44 47  0  0  0  0  0  0  0  0999 V2000
    1.3904   65.7474   83.2868 C   0  0  0  0  0  0  0  0  0  0  0  0
    2.0924   66.9471   83.4819 C   0  0  0  0  0  0  0  0  0  0  0  0
    2.0189   67.9823   82.5450 C   0  0  0  0  0  0  0  0  0  0  0  0
    1.2460   67.8200   81.3974 C   0  0  0  0  0  0  0  0  0  0  0  0
    0.5758   66.6195   81.1655 C   0  0  0  0  0  0  0  0  0  0  0  0
    0.6200   65.5826   82.1141 C   0  0  0  0  0  0  0  0  0  0  0  0
   -0.2119   64.3672   81.8100 C   0  0  0  0  0  0  0  0  0  0  0  0
   -0.2330   63.9026   80.5909 N   0  0  0  0  0  0  0  0  0  0  0  0
   -1.0426   62.7807   80.4140 C   0  0  0  0  0  0  0  0  0  0  0  0
   -1.2547   62.0709   79.2149 C   0  0  0  0  0  0  0  0  0  0  0  0
   -2.1363   61.0507   79.5458 C   0  0  0  0  0  0  0  0  0  0  0  0
   -2.4418   61.1479   80.8848 N   0  0  0  0  0  0  0  0  0  0  0  0
   -3.3290   60.2634   81.6055 C   0  0  0  0  0  0  0  0  0  0  0  0
   -1.7694   62.2108   81.4224 C   0  0  0  0  0  0  0  0  0  0  0  0
   -1.7513   62.7219   82.7523 C   0  0  0  0  0  0  0  0  0  0  0  0
   -2.3916   62.2828   83.7015 O   0  0  0  0  0  0  0  0  0  0  0  0
   -0.9178   63.8089   82.8655 N   0  0  0  0  0  0  0  0  0  0  0  0
   -0.8816   64.2414   83.7787 H   0  0  0  0  0  0  0  0  0  0  0  0
   -0.6506   62.3450   77.8774 C   0  0  0  0  0  0  0  0  0  0  0  0
   -1.3661   61.6464   76.7184 C   0  0  0  0  0  0  0  0  0  0  0  0
   -0.7980   60.2686   76.4080 C   0  0  0  0  0  0  0  0  0  0  0  0
    1.1465   69.1237   80.1901 S   0  0  0  0  0  0  0  0  0  0  0  0
    2.1881   68.8898   79.2121 O   0  0  0  0  0  0  0  0  0  0  0  0
   -0.2395   69.2450   79.7964 O   0  0  0  0  0  0  0  0  0  0  0  0
    1.5809   70.5146   81.0698 N   0  0  0  0  0  0  0  0  0  0  0  0
    2.9964   70.6132   81.4974 C   0  0  0  0  0  0  0  0  0  0  0  0
    3.2017   71.8231   82.4128 C   0  0  0  0  0  0  0  0  0  0  0  0
    2.2822   73.0068   82.0434 C   0  0  0  0  0  0  0  0  0  0  0  0
    0.8059   72.5606   82.1530 C   0  0  0  0  0  0  0  0  0  0  0  0
    0.6148   71.0439   82.0509 C   0  0  0  0  0  0  0  0  0  0  0  0
    2.6334   73.6083   80.6442 C   0  0  0  0  0  0  0  0  0  0  0  0
    1.4187   74.2522   79.9361 C   0  0  0  0  0  0  0  0  0  0  0  0
    1.3968   75.6520   80.2188 O   0  0  0  0  0  0  0  0  0  0  0  0
    0.1344   76.0990   80.6763 N   0  0  0  0  0  0  0  0  0  0  0  0
   -0.7156   76.3546   79.8233 O   0  0  0  0  0  0  0  0  0  0  0  0
    0.0697   76.1604   81.9019 O   0  0  0  0  0  0  0  0  0  0  0  0
    3.6226   74.6260   80.8789 O   0  0  0  0  0  0  0  0  0  0  0  0
    4.8563   74.4031   80.2198 N   0  0  0  0  0  0  0  0  0  0  0  0
    5.1087   73.2517   79.8683 O   0  0  0  0  0  0  0  0  0  0  0  0
    5.5073   75.4349   80.0757 O   0  0  0  0  0  0  0  0  0  0  0  0
    1.4132   64.7068   84.1798 O   0  0  0  0  0  0  0  0  0  0  0  0
    1.0232   64.9611   85.5314 C   0  0  0  0  0  0  0  0  0  0  0  0
    0.4637   63.6559   87.6305 C   0  0  0  0  0  0  0  0  0  0  0  0
    0.4097   63.6872   86.1093 C   0  0  0  0  0  0  0  0  0  0  0  0
 43 44  1  0  0  0
 44 42  1  0  0  0
 42 41  1  0  0  0
 41  1  1  0  0  0
  1  2  1  0  0  0
  2  3  2  0  0  0
  3  4  1  0  0  0
  4 22  1  0  0  0
 22 23  2  0  0  0
 22 24  2  0  0  0
 22 25  1  0  0  0
 25 26  1  0  0  0
 26 27  1  0  0  0
 27 28  1  0  0  0
 28 31  1  0  0  0
 31 32  1  0  0  0
 32 33  1  0  0  0
 33 34  1  0  0  0
 34 35  2  0  0  0
 34 36  1  0  0  0
 31 37  1  0  0  0
 37 38  1  0  0  0
 38 39  2  0  0  0
 38 40  1  0  0  0
 28 29  1  0  0  0
 29 30  1  0  0  0
  4  5  2  0  0  0
  5  6  1  0  0  0
  6  7  1  0  0  0
  7  8  2  0  0  0
  8  9  1  0  0  0
  9 10  1  0  0  0
 10 19  1  0  0  0
 19 20  1  0  0  0
 20 21  1  0  0  0
 10 11  2  0  0  0
 11 12  1  0  0  0
 12 13  1  0  0  0
 12 14  1  0  0  0
 14 15  1  0  0  0
 15 16  2  0  0  0
 15 17  1  0  0  0
  6  1  2  0  0  0
 17  7  1  0  0  0
 30 25  1  0  0  0
 14  9  2  0  0  0
 17 18  1  0  0  0
M  CHG 1  34   1
M  CHG 1  36  -1
M  CHG 1  38   1
M  CHG 1  40  -1
M  END
> <minimizedAffinity>
-1.62574

$$$$



 44 47  0  0  0  0  0  0  0  0999 V2000
    1.2412   66.2004   82.8222 C   0  0  0  0  0  0  0  0  0  0  0  0
    1.8706   67.2429   83.5204 C   0  0  0  0  0  0  0  0  0  0  0  0
    2.3913   68.3493   82.8423 C   0  0  0  0  0  0  0  0  0  0  0  0
    2.2928   68.4162   81.4543 C   0  0  0  0  0  0  0  0  0  0  0  0
    1.7092   67.3707   80.7400 C   0  0  0  0  0  0  0  0  0  0  0  0
    1.1574   66.2667   81.4135 C   0  0  0  0  0  0  0  0  0  0  0  0
    0.4703   65.2399   80.5559 C   0  0  0  0  0  0  0  0  0  0  0  0
    0.2208   64.0610   81.0562 N   0  0  0  0  0  0  0  0  0  0  0  0
   -0.4088   63.1811   80.1758 C   0  0  0  0  0  0  0  0  0  0  0  0
   -0.7974   61.8525   80.4410 C   0  0  0  0  0  0  0  0  0  0  0  0
   -1.3700   61.3973   79.2610 C   0  0  0  0  0  0  0  0  0  0  0  0
   -1.3227   62.4089   78.3281 N   0  0  0  0  0  0  0  0  0  0  0  0
   -1.8216   62.3209   76.9746 C   0  0  0  0  0  0  0  0  0  0  0  0
   -0.7329   63.5085   78.8883 C   0  0  0  0  0  0  0  0  0  0  0  0
   -0.4545   64.7939   78.3400 C   0  0  0  0  0  0  0  0  0  0  0  0
   -0.6917   65.1539   77.1920 O   0  0  0  0  0  0  0  0  0  0  0  0
    0.1416   65.6196   79.2630 N   0  0  0  0  0  0  0  0  0  0  0  0
    0.3952   66.5400   78.9298 H   0  0  0  0  0  0  0  0  0  0  0  0
   -0.6424   61.0982   81.7200 C   0  0  0  0  0  0  0  0  0  0  0  0
   -1.7346   61.3938   82.7511 C   0  0  0  0  0  0  0  0  0  0  0  0
   -3.0081   60.5923   82.5198 C   0  0  0  0  0  0  0  0  0  0  0  0
    2.9564   69.8130   80.5735 S   0  0  0  0  0  0  0  0  0  0  0  0
    4.2901   70.0535   81.0829 O   0  0  0  0  0  0  0  0  0  0  0  0
    2.7199   69.5891   79.1646 O   0  0  0  0  0  0  0  0  0  0  0  0
    1.9775   71.1079   81.0855 N   0  0  0  0  0  0  0  0  0  0  0  0
    2.5316   71.9769   82.1504 C   0  0  0  0  0  0  0  0  0  0  0  0
    1.4840   72.9887   82.6223 C   0  0  0  0  0  0  0  0  0  0  0  0
    0.5415   73.4378   81.4853 C   0  0  0  0  0  0  0  0  0  0  0  0
   -0.1971   72.2043   80.9165 C   0  0  0  0  0  0  0  0  0  0  0  0
    0.5237   70.8796   81.1869 C   0  0  0  0  0  0  0  0  0  0  0  0
    1.2952   74.2552   80.3868 C   0  0  0  0  0  0  0  0  0  0  0  0
    0.3519   74.8465   79.3134 C   0  0  0  0  0  0  0  0  0  0  0  0
   -0.6919   75.5792   79.9563 O   0  0  0  0  0  0  0  0  0  0  0  0
   -1.4312   76.3836   79.0566 N   0  0  0  0  0  0  0  0  0  0  0  0
   -1.3473   77.6042   79.1930 O   0  0  0  0  0  0  0  0  0  0  0  0
   -2.0640   75.7200   78.2386 O   0  0  0  0  0  0  0  0  0  0  0  0
    1.9527   75.3377   81.0688 O   0  0  0  0  0  0  0  0  0  0  0  0
    3.2275   75.6672   80.5466 N   0  0  0  0  0  0  0  0  0  0  0  0
    4.0682   74.7706   80.5018 O   0  0  0  0  0  0  0  0  0  0  0  0
    3.3007   76.8393   80.1857 O   0  0  0  0  0  0  0  0  0  0  0  0
    0.6989   65.1011   83.4370 O   0  0  0  0  0  0  0  0  0  0  0  0
    0.9675   64.8963   84.8261 C   0  0  0  0  0  0  0  0  0  0  0  0
   -0.0907   63.6988   86.7930 C   0  0  0  0  0  0  0  0  0  0  0  0
    0.1896   63.6689   85.2969 C   0  0  0  0  0  0  0  0  0  0  0  0
 43 44  1  0  0  0
 44 42  1  0  0  0
 42 41  1  0  0  0
 41  1  1  0  0  0
  1  2  1  0  0  0
  2  3  2  0  0  0
  3  4  1  0  0  0
  4 22  1  0  0  0
 22 23  2  0  0  0
 22 24  2  0  0  0
 22 25  1  0  0  0
 25 26  1  0  0  0
 26 27  1  0  0  0
 27 28  1  0  0  0
 28 31  1  0  0  0
 31 32  1  0  0  0
 32 33  1  0  0  0
 33 34  1  0  0  0
 34 35  2  0  0  0
 34 36  1  0  0  0
 31 37  1  0  0  0
 37 38  1  0  0  0
 38 39  2  0  0  0
 38 40  1  0  0  0
 28 29  1  0  0  0
 29 30  1  0  0  0
  4  5  2  0  0  0
  5  6  1  0  0  0
  6  7  1  0  0  0
  7  8  2  0  0  0
  8  9  1  0  0  0
  9 10  1  0  0  0
 10 19  1  0  0  0
 19 20  1  0  0  0
 20 21  1  0  0  0
 10 11  2  0  0  0
 11 12  1  0  0  0
 12 13  1  0  0  0
 12 14  1  0  0  0
 14 15  1  0  0  0
 15 16  2  0  0  0
 15 17  1  0  0  0
  6  1  2  0  0  0
 17  7  1  0  0  0
 30 25  1  0  0  0
 14  9  2  0  0  0
 17 18  1  0  0  0
M  CHG 1  34   1
M  CHG 1  36  -1
M  CHG 1  38   1
M  CHG 1  40  -1
M  END
> <minimizedAffinity>
-1.62551

$$$$



 44 47  0  0  0  0  0  0  0  0999 V2000
    4.8330   72.7851   80.3083 C   0  0  0  0  0  0  0  0  0  0  0  0
    5.3584   74.0847   80.2342 C   0  0  0  0  0  0  0  0  0  0  0  0
    4.8818   75.1003   81.0688 C   0  0  0  0  0  0  0  0  0  0  0  0
    3.8660   74.8231   81.9809 C   0  0  0  0  0  0  0  0  0  0  0  0
    3.3023   73.5492   82.0395 C   0  0  0  0  0  0  0  0  0  0  0  0
    3.7928   72.5135   81.2249 C   0  0  0  0  0  0  0  0  0  0  0  0
    3.1783   71.1566   81.4321 C   0  0  0  0  0  0  0  0  0  0  0  0
    3.6231   70.4004   82.3979 N   0  0  0  0  0  0  0  0  0  0  0  0
    2.9936   69.1597   82.4970 C   0  0  0  0  0  0  0  0  0  0  0  0
    3.2643   68.1463   83.4385 C   0  0  0  0  0  0  0  0  0  0  0  0
    2.3905   67.1141   83.1250 C   0  0  0  0  0  0  0  0  0  0  0  0
    1.6316   67.4918   82.0400 N   0  0  0  0  0  0  0  0  0  0  0  0
    0.6075   66.6856   81.4156 C   0  0  0  0  0  0  0  0  0  0  0  0
    1.9995   68.7508   81.6518 C   0  0  0  0  0  0  0  0  0  0  0  0
    1.5182   69.5740   80.5931 C   0  0  0  0  0  0  0  0  0  0  0  0
    0.6502   69.2701   79.7819 O   0  0  0  0  0  0  0  0  0  0  0  0
    2.1599   70.7891   80.5651 N   0  0  0  0  0  0  0  0  0  0  0  0
    1.8878   71.4124   79.8169 H   0  0  0  0  0  0  0  0  0  0  0  0
    4.2647   68.1786   84.5463 C   0  0  0  0  0  0  0  0  0  0  0  0
    5.1105   66.9074   84.6558 C   0  0  0  0  0  0  0  0  0  0  0  0
    5.6133   66.6433   86.0682 C   0  0  0  0  0  0  0  0  0  0  0  0
    3.2414   76.1049   83.0460 S   0  0  0  0  0  0  0  0  0  0  0  0
    2.8840   75.4868   84.3054 O   0  0  0  0  0  0  0  0  0  0  0  0
    4.1743   77.2083   82.9892 O   0  0  0  0  0  0  0  0  0  0  0  0
    1.7944   76.5825   82.2874 N   0  0  0  0  0  0  0  0  0  0  0  0
    1.8815   77.7350   81.3599 C   0  0  0  0  0  0  0  0  0  0  0  0
    0.4875   78.1529   80.8844 C   0  0  0  0  0  0  0  0  0  0  0  0
   -0.4761   76.9541   80.7522 C   0  0  0  0  0  0  0  0  0  0  0  0
   -0.6201   76.2603   82.1264 C   0  0  0  0  0  0  0  0  0  0  0  0
    0.5495   76.5348   83.0772 C   0  0  0  0  0  0  0  0  0  0  0  0
   -0.0386   75.9719   79.6179 C   0  0  0  0  0  0  0  0  0  0  0  0
   -1.0502   74.8264   79.3808 C   0  0  0  0  0  0  0  0  0  0  0  0
   -2.0079   75.2389   78.4048 O   0  0  0  0  0  0  0  0  0  0  0  0
   -3.2644   74.6089   78.5695 N   0  0  0  0  0  0  0  0  0  0  0  0
   -4.2674   75.2819   78.3320 O   0  0  0  0  0  0  0  0  0  0  0  0
   -3.1634   73.4388   78.9311 O   0  0  0  0  0  0  0  0  0  0  0  0
    0.0565   76.7583   78.4171 O   0  0  0  0  0  0  0  0  0  0  0  0
    1.1804   76.4562   77.6098 N   0  0  0  0  0  0  0  0  0  0  0  0
    1.0935   76.6993   76.4072 O   0  0  0  0  0  0  0  0  0  0  0  0
    2.1168   75.9957   78.2582 O   0  0  0  0  0  0  0  0  0  0  0  0
    5.2738   71.7482   79.5265 O   0  0  0  0  0  0  0  0  0  0  0  0
    5.8725   72.0537   78.2648 C   0  0  0  0  0  0  0  0  0  0  0  0
    8.0693   73.1902   77.7123 C   0  0  0  0  0  0  0  0  0  0  0  0
    7.3911   72.0299   78.4277 C   0  0  0  0  0  0  0  0  0  0  0  0
 43 44  1  0  0  0
 44 42  1  0  0  0
 42 41  1  0  0  0
 41  1  1  0  0  0
  1  2  1  0  0  0
  2  3  2  0  0  0
  3  4  1  0  0  0
  4 22  1  0  0  0
 22 23  2  0  0  0
 22 24  2  0  0  0
 22 25  1  0  0  0
 25 26  1  0  0  0
 26 27  1  0  0  0
 27 28  1  0  0  0
 28 31  1  0  0  0
 31 32  1  0  0  0
 32 33  1  0  0  0
 33 34  1  0  0  0
 34 35  2  0  0  0
 34 36  1  0  0  0
 31 37  1  0  0  0
 37 38  1  0  0  0
 38 39  2  0  0  0
 38 40  1  0  0  0
 28 29  1  0  0  0
 29 30  1  0  0  0
  4  5  2  0  0  0
  5  6  1  0  0  0
  6  7  1  0  0  0
  7  8  2  0  0  0
  8  9  1  0  0  0
  9 10  1  0  0  0
 10 19  1  0  0  0
 19 20  1  0  0  0
 20 21  1  0  0  0
 10 11  2  0  0  0
 11 12  1  0  0  0
 12 13  1  0  0  0
 12 14  1  0  0  0
 14 15  1  0  0  0
 15 16  2  0  0  0
 15 17  1  0  0  0
  6  1  2  0  0  0
 17  7  1  0  0  0
 30 25  1  0  0  0
 14  9  2  0  0  0
 17 18  1  0  0  0
M  CHG 1  34   1
M  CHG 1  36  -1
M  CHG 1  38   1
M  CHG 1  40  -1
M  END
> <minimizedAffinity>
-1.62262

$$$$



 44 47  0  0  0  0  0  0  0  0999 V2000
    2.7376   68.1431   83.0354 C   0  0  0  0  0  0  0  0  0  0  0  0
    2.3081   66.8299   83.2829 C   0  0  0  0  0  0  0  0  0  0  0  0
    1.4728   66.1656   82.3795 C   0  0  0  0  0  0  0  0  0  0  0  0
    1.0529   66.8168   81.2218 C   0  0  0  0  0  0  0  0  0  0  0  0
    1.4344   68.1359   80.9798 C   0  0  0  0  0  0  0  0  0  0  0  0
    2.2967   68.8037   81.8671 C   0  0  0  0  0  0  0  0  0  0  0  0
    2.7202   70.1899   81.4660 C   0  0  0  0  0  0  0  0  0  0  0  0
    1.9174   71.1910   81.7021 N   0  0  0  0  0  0  0  0  0  0  0  0
    2.4001   72.4304   81.2821 C   0  0  0  0  0  0  0  0  0  0  0  0
    1.7540   73.6767   81.4075 C   0  0  0  0  0  0  0  0  0  0  0  0
    2.6240   74.5976   80.8395 C   0  0  0  0  0  0  0  0  0  0  0  0
    3.7415   73.9305   80.3899 N   0  0  0  0  0  0  0  0  0  0  0  0
    4.8757   74.5453   79.7385 C   0  0  0  0  0  0  0  0  0  0  0  0
    3.6074   72.5967   80.6619 C   0  0  0  0  0  0  0  0  0  0  0  0
    4.4813   71.5026   80.3982 C   0  0  0  0  0  0  0  0  0  0  0  0
    5.5647   71.5675   79.8273 O   0  0  0  0  0  0  0  0  0  0  0  0
    3.9603   70.3166   80.8575 N   0  0  0  0  0  0  0  0  0  0  0  0
    4.5168   69.4924   80.6750 H   0  0  0  0  0  0  0  0  0  0  0  0
    0.4259   73.9534   82.0308 C   0  0  0  0  0  0  0  0  0  0  0  0
   -0.1592   75.3196   81.6638 C   0  0  0  0  0  0  0  0  0  0  0  0
   -0.0156   76.3499   82.7752 C   0  0  0  0  0  0  0  0  0  0  0  0
   -0.0165   65.9900   80.0643 S   0  0  0  0  0  0  0  0  0  0  0  0
   -1.2563   66.7356   80.0099 O   0  0  0  0  0  0  0  0  0  0  0  0
    0.7561   65.7298   78.8700 O   0  0  0  0  0  0  0  0  0  0  0  0
   -0.3520   64.5041   80.8238 N   0  0  0  0  0  0  0  0  0  0  0  0
   -1.5770   64.4468   81.6560 C   0  0  0  0  0  0  0  0  0  0  0  0
   -1.6611   63.1132   82.4032 C   0  0  0  0  0  0  0  0  0  0  0  0
   -1.0591   61.9438   81.5952 C   0  0  0  0  0  0  0  0  0  0  0  0
    0.4290   62.2404   81.2984 C   0  0  0  0  0  0  0  0  0  0  0  0
    0.7819   63.7299   81.3631 C   0  0  0  0  0  0  0  0  0  0  0  0
   -1.8863   61.6341   80.3058 C   0  0  0  0  0  0  0  0  0  0  0  0
   -1.0222   61.0913   79.1438 C   0  0  0  0  0  0  0  0  0  0  0  0
   -0.9633   62.0692   78.1046 O   0  0  0  0  0  0  0  0  0  0  0  0
   -1.6561   61.6702   76.9368 N   0  0  0  0  0  0  0  0  0  0  0  0
   -1.5746   60.4861   76.6104 O   0  0  0  0  0  0  0  0  0  0  0  0
   -2.2643   62.5974   76.4072 O   0  0  0  0  0  0  0  0  0  0  0  0
   -2.8470   60.6286   80.6741 O   0  0  0  0  0  0  0  0  0  0  0  0
   -3.9361   60.5064   79.7769 N   0  0  0  0  0  0  0  0  0  0  0  0
   -4.6871   61.4741   79.6654 O   0  0  0  0  0  0  0  0  0  0  0  0
   -3.9591   59.4175   79.2086 O   0  0  0  0  0  0  0  0  0  0  0  0
    3.5693   68.8355   83.8778 O   0  0  0  0  0  0  0  0  0  0  0  0
    4.0773   68.1663   85.0344 C   0  0  0  0  0  0  0  0  0  0  0  0
    5.9813   66.5909   85.5962 C   0  0  0  0  0  0  0  0  0  0  0  0
    5.5383   67.7989   84.7824 C   0  0  0  0  0  0  0  0  0  0  0  0
 43 44  1  0  0  0
 44 42  1  0  0  0
 42 41  1  0  0  0
 41  1  1  0  0  0
  1  2  1  0  0  0
  2  3  2  0  0  0
  3  4  1  0  0  0
  4 22  1  0  0  0
 22 23  2  0  0  0
 22 24  2  0  0  0
 22 25  1  0  0  0
 25 26  1  0  0  0
 26 27  1  0  0  0
 27 28  1  0  0  0
 28 31  1  0  0  0
 31 32  1  0  0  0
 32 33  1  0  0  0
 33 34  1  0  0  0
 34 35  2  0  0  0
 34 36  1  0  0  0
 31 37  1  0  0  0
 37 38  1  0  0  0
 38 39  2  0  0  0
 38 40  1  0  0  0
 28 29  1  0  0  0
 29 30  1  0  0  0
  4  5  2  0  0  0
  5  6  1  0  0  0
  6  7  1  0  0  0
  7  8  2  0  0  0
  8  9  1  0  0  0
  9 10  1  0  0  0
 10 19  1  0  0  0
 19 20  1  0  0  0
 20 21  1  0  0  0
 10 11  2  0  0  0
 11 12  1  0  0  0
 12 13  1  0  0  0
 12 14  1  0  0  0
 14 15  1  0  0  0
 15 16  2  0  0  0
 15 17  1  0  0  0
  6  1  2  0  0  0
 17  7  1  0  0  0
 30 25  1  0  0  0
 14  9  2  0  0  0
 17 18  1  0  0  0
M  CHG 1  34   1
M  CHG 1  36  -1
M  CHG 1  38   1
M  CHG 1  40  -1
M  END
> <minimizedAffinity>
-1.61242

$$$$



 44 47  0  0  0  0  0  0  0  0999 V2000
    3.0337   77.4596   83.2542 C   0  0  0  0  0  0  0  0  0  0  0  0
    3.9233   78.4822   83.6189 C   0  0  0  0  0  0  0  0  0  0  0  0
    5.3056   78.2723   83.5986 C   0  0  0  0  0  0  0  0  0  0  0  0
    5.8086   77.0297   83.2199 C   0  0  0  0  0  0  0  0  0  0  0  0
    4.9395   75.9889   82.8953 C   0  0  0  0  0  0  0  0  0  0  0  0
    3.5490   76.1970   82.8851 C   0  0  0  0  0  0  0  0  0  0  0  0
    2.7062   75.0370   82.4314 C   0  0  0  0  0  0  0  0  0  0  0  0
    1.5806   75.2742   81.8157 N   0  0  0  0  0  0  0  0  0  0  0  0
    0.8714   74.1311   81.4471 C   0  0  0  0  0  0  0  0  0  0  0  0
   -0.3655   74.0833   80.7732 C   0  0  0  0  0  0  0  0  0  0  0  0
   -0.6585   72.7324   80.6435 C   0  0  0  0  0  0  0  0  0  0  0  0
    0.3578   72.0028   81.2185 N   0  0  0  0  0  0  0  0  0  0  0  0
    0.4169   70.5603   81.2838 C   0  0  0  0  0  0  0  0  0  0  0  0
    1.3016   72.8606   81.7129 C   0  0  0  0  0  0  0  0  0  0  0  0
    2.5277   72.6016   82.3910 C   0  0  0  0  0  0  0  0  0  0  0  0
    2.9681   71.4958   82.6861 O   0  0  0  0  0  0  0  0  0  0  0  0
    3.1887   73.7654   82.7038 N   0  0  0  0  0  0  0  0  0  0  0  0
    4.0540   73.6553   83.2151 H   0  0  0  0  0  0  0  0  0  0  0  0
   -1.1812   75.2356   80.2877 C   0  0  0  0  0  0  0  0  0  0  0  0
   -0.6296   75.8968   79.0220 C   0  0  0  0  0  0  0  0  0  0  0  0
   -1.6671   76.7284   78.2807 C   0  0  0  0  0  0  0  0  0  0  0  0
    7.5647   76.7416   83.1953 S   0  0  0  0  0  0  0  0  0  0  0  0
    8.2049   77.9162   83.7490 O   0  0  0  0  0  0  0  0  0  0  0  0
    7.7961   75.4275   83.7525 O   0  0  0  0  0  0  0  0  0  0  0  0
    7.9374   76.6967   81.5351 N   0  0  0  0  0  0  0  0  0  0  0  0
    8.4542   75.4124   81.0064 C   0  0  0  0  0  0  0  0  0  0  0  0
    8.8990   75.5672   79.5496 C   0  0  0  0  0  0  0  0  0  0  0  0
    8.0368   76.5853   78.7732 C   0  0  0  0  0  0  0  0  0  0  0  0
    8.1352   77.9671   79.4599 C   0  0  0  0  0  0  0  0  0  0  0  0
    8.5561   77.8919   80.9312 C   0  0  0  0  0  0  0  0  0  0  0  0
    6.5626   76.0955   78.6012 C   0  0  0  0  0  0  0  0  0  0  0  0
    5.6022   77.2103   78.1253 C   0  0  0  0  0  0  0  0  0  0  0  0
    4.2668   76.8745   78.5044 O   0  0  0  0  0  0  0  0  0  0  0  0
    3.2917   77.5578   77.7395 N   0  0  0  0  0  0  0  0  0  0  0  0
    2.1970   77.7533   78.2676 O   0  0  0  0  0  0  0  0  0  0  0  0
    3.7002   77.8725   76.6241 O   0  0  0  0  0  0  0  0  0  0  0  0
    6.5952   75.0590   77.6041 O   0  0  0  0  0  0  0  0  0  0  0  0
    6.2518   73.7731   78.0884 N   0  0  0  0  0  0  0  0  0  0  0  0
    6.6167   72.8039   77.4248 O   0  0  0  0  0  0  0  0  0  0  0  0
    5.6329   73.8181   79.1487 O   0  0  0  0  0  0  0  0  0  0  0  0
    1.6712   77.6153   83.2400 O   0  0  0  0  0  0  0  0  0  0  0  0
    1.0990   78.6742   84.0113 C   0  0  0  0  0  0  0  0  0  0  0  0
    1.4085   78.5639   86.5242 C   0  0  0  0  0  0  0  0  0  0  0  0
    0.5888   78.0958   85.3297 C   0  0  0  0  0  0  0  0  0  0  0  0
 43 44  1  0  0  0
 44 42  1  0  0  0
 42 41  1  0  0  0
 41  1  1  0  0  0
  1  2  1  0  0  0
  2  3  2  0  0  0
  3  4  1  0  0  0
  4 22  1  0  0  0
 22 23  2  0  0  0
 22 24  2  0  0  0
 22 25  1  0  0  0
 25 26  1  0  0  0
 26 27  1  0  0  0
 27 28  1  0  0  0
 28 31  1  0  0  0
 31 32  1  0  0  0
 32 33  1  0  0  0
 33 34  1  0  0  0
 34 35  2  0  0  0
 34 36  1  0  0  0
 31 37  1  0  0  0
 37 38  1  0  0  0
 38 39  2  0  0  0
 38 40  1  0  0  0
 28 29  1  0  0  0
 29 30  1  0  0  0
  4  5  2  0  0  0
  5  6  1  0  0  0
  6  7  1  0  0  0
  7  8  2  0  0  0
  8  9  1  0  0  0
  9 10  1  0  0  0
 10 19  1  0  0  0
 19 20  1  0  0  0
 20 21  1  0  0  0
 10 11  2  0  0  0
 11 12  1  0  0  0
 12 13  1  0  0  0
 12 14  1  0  0  0
 14 15  1  0  0  0
 15 16  2  0  0  0
 15 17  1  0  0  0
  6  1  2  0  0  0
 17  7  1  0  0  0
 30 25  1  0  0  0
 14  9  2  0  0  0
 17 18  1  0  0  0
M  CHG 1  34   1
M  CHG 1  36  -1
M  CHG 1  38   1
M  CHG 1  40  -1
M  END
> <minimizedAffinity>
-1.60469

$$$$



 44 47  0  0  0  0  0  0  0  0999 V2000
    2.6727   68.1068   83.1107 C   0  0  0  0  0  0  0  0  0  0  0  0
    2.4185   66.7345   83.2604 C   0  0  0  0  0  0  0  0  0  0  0  0
    1.7052   66.0264   82.2883 C   0  0  0  0  0  0  0  0  0  0  0  0
    1.2321   66.6914   81.1594 C   0  0  0  0  0  0  0  0  0  0  0  0
    1.4379   68.0627   81.0137 C   0  0  0  0  0  0  0  0  0  0  0  0
    2.1777   68.7790   81.9709 C   0  0  0  0  0  0  0  0  0  0  0  0
    2.4202   70.2329   81.6723 C   0  0  0  0  0  0  0  0  0  0  0  0
    3.5035   70.5760   81.0310 N   0  0  0  0  0  0  0  0  0  0  0  0
    3.6371   71.9474   80.8146 C   0  0  0  0  0  0  0  0  0  0  0  0
    4.6965   72.6003   80.1527 C   0  0  0  0  0  0  0  0  0  0  0  0
    4.3792   73.9511   80.2002 C   0  0  0  0  0  0  0  0  0  0  0  0
    3.1829   74.1007   80.8653 N   0  0  0  0  0  0  0  0  0  0  0  0
    2.5196   75.3596   81.1182 C   0  0  0  0  0  0  0  0  0  0  0  0
    2.7229   72.8694   81.2437 C   0  0  0  0  0  0  0  0  0  0  0  0
    1.5432   72.4953   81.9497 C   0  0  0  0  0  0  0  0  0  0  0  0
    0.6915   73.2620   82.3864 O   0  0  0  0  0  0  0  0  0  0  0  0
    1.4587   71.1326   82.1081 N   0  0  0  0  0  0  0  0  0  0  0  0
    0.6588   70.7998   82.6294 H   0  0  0  0  0  0  0  0  0  0  0  0
    5.8963   71.9754   79.5211 C   0  0  0  0  0  0  0  0  0  0  0  0
    7.0887   72.9250   79.3800 C   0  0  0  0  0  0  0  0  0  0  0  0
    7.3021   73.4091   77.9525 C   0  0  0  0  0  0  0  0  0  0  0  0
    0.3158   65.8082   79.9153 S   0  0  0  0  0  0  0  0  0  0  0  0
   -0.8798   66.5738   79.6316 O   0  0  0  0  0  0  0  0  0  0  0  0
    1.2441   65.4494   78.8663 O   0  0  0  0  0  0  0  0  0  0  0  0
   -0.1710   64.3862   80.7142 N   0  0  0  0  0  0  0  0  0  0  0  0
   -1.4447   64.4529   81.4689 C   0  0  0  0  0  0  0  0  0  0  0  0
   -1.6695   63.1646   82.2650 C   0  0  0  0  0  0  0  0  0  0  0  0
   -1.1060   61.9198   81.5468 C   0  0  0  0  0  0  0  0  0  0  0  0
    0.4148   62.0984   81.3324 C   0  0  0  0  0  0  0  0  0  0  0  0
    0.8697   63.5612   81.3564 C   0  0  0  0  0  0  0  0  0  0  0  0
   -1.8744   61.6085   80.2219 C   0  0  0  0  0  0  0  0  0  0  0  0
   -0.9653   61.0316   79.1119 C   0  0  0  0  0  0  0  0  0  0  0  0
   -0.8942   61.9622   78.0308 O   0  0  0  0  0  0  0  0  0  0  0  0
   -1.6789   61.5721   76.9195 N   0  0  0  0  0  0  0  0  0  0  0  0
   -1.4269   60.4815   76.4072 O   0  0  0  0  0  0  0  0  0  0  0  0
   -2.5309   62.4072   76.6253 O   0  0  0  0  0  0  0  0  0  0  0  0
   -2.8732   60.6283   80.5551 O   0  0  0  0  0  0  0  0  0  0  0  0
   -3.9010   60.4918   79.5901 N   0  0  0  0  0  0  0  0  0  0  0  0
   -4.0918   59.3699   79.1234 O   0  0  0  0  0  0  0  0  0  0  0  0
   -4.4829   61.5507   79.3679 O   0  0  0  0  0  0  0  0  0  0  0  0
    3.3802   68.8463   84.0235 O   0  0  0  0  0  0  0  0  0  0  0  0
    4.0148   68.1636   85.1074 C   0  0  0  0  0  0  0  0  0  0  0  0
    5.9377   66.5325   85.3622 C   0  0  0  0  0  0  0  0  0  0  0  0
    5.4393   67.8040   84.6894 C   0  0  0  0  0  0  0  0  0  0  0  0
 43 44  1  0  0  0
 44 42  1  0  0  0
 42 41  1  0  0  0
 41  1  1  0  0  0
  1  2  1  0  0  0
  2  3  2  0  0  0
  3  4  1  0  0  0
  4 22  1  0  0  0
 22 23  2  0  0  0
 22 24  2  0  0  0
 22 25  1  0  0  0
 25 26  1  0  0  0
 26 27  1  0  0  0
 27 28  1  0  0  0
 28 31  1  0  0  0
 31 32  1  0  0  0
 32 33  1  0  0  0
 33 34  1  0  0  0
 34 35  2  0  0  0
 34 36  1  0  0  0
 31 37  1  0  0  0
 37 38  1  0  0  0
 38 39  2  0  0  0
 38 40  1  0  0  0
 28 29  1  0  0  0
 29 30  1  0  0  0
  4  5  2  0  0  0
  5  6  1  0  0  0
  6  7  1  0  0  0
  7  8  2  0  0  0
  8  9  1  0  0  0
  9 10  1  0  0  0
 10 19  1  0  0  0
 19 20  1  0  0  0
 20 21  1  0  0  0
 10 11  2  0  0  0
 11 12  1  0  0  0
 12 13  1  0  0  0
 12 14  1  0  0  0
 14 15  1  0  0  0
 15 16  2  0  0  0
 15 17  1  0  0  0
  6  1  2  0  0  0
 17  7  1  0  0  0
 30 25  1  0  0  0
 14  9  2  0  0  0
 17 18  1  0  0  0
M  CHG 1  34   1
M  CHG 1  36  -1
M  CHG 1  38   1
M  CHG 1  40  -1
M  END
> <minimizedAffinity>
-1.59199

$$$$



 44 47  0  0  0  0  0  0  0  0999 V2000
    3.1318   67.2463   83.8552 C   0  0  0  0  0  0  0  0  0  0  0  0
    3.8907   68.4267   83.8243 C   0  0  0  0  0  0  0  0  0  0  0  0
    3.7436   69.3476   82.7825 C   0  0  0  0  0  0  0  0  0  0  0  0
    2.8384   69.0883   81.7559 C   0  0  0  0  0  0  0  0  0  0  0  0
    2.1068   67.9015   81.7471 C   0  0  0  0  0  0  0  0  0  0  0  0
    2.2261   66.9816   82.8037 C   0  0  0  0  0  0  0  0  0  0  0  0
    1.3251   65.7790   82.7434 C   0  0  0  0  0  0  0  0  0  0  0  0
    1.0174   65.1616   83.8509 N   0  0  0  0  0  0  0  0  0  0  0  0
    0.1861   64.0542   83.6835 C   0  0  0  0  0  0  0  0  0  0  0  0
   -0.3058   63.2048   84.6950 C   0  0  0  0  0  0  0  0  0  0  0  0
   -1.0745   62.2566   84.0334 C   0  0  0  0  0  0  0  0  0  0  0  0
   -1.0412   62.5248   82.6833 N   0  0  0  0  0  0  0  0  0  0  0  0
   -1.7203   61.7594   81.6627 C   0  0  0  0  0  0  0  0  0  0  0  0
   -0.2672   63.6312   82.4647 C   0  0  0  0  0  0  0  0  0  0  0  0
    0.0740   64.3016   81.2546 C   0  0  0  0  0  0  0  0  0  0  0  0
   -0.2717   63.9705   80.1256 O   0  0  0  0  0  0  0  0  0  0  0  0
    0.8722   65.3955   81.4897 N   0  0  0  0  0  0  0  0  0  0  0  0
    1.1779   65.9007   80.6689 H   0  0  0  0  0  0  0  0  0  0  0  0
   -0.0664   63.3084   86.1649 C   0  0  0  0  0  0  0  0  0  0  0  0
   -1.1089   62.5792   87.0164 C   0  0  0  0  0  0  0  0  0  0  0  0
   -0.7745   62.5796   88.5016 C   0  0  0  0  0  0  0  0  0  0  0  0
    2.6432   70.2453   80.4177 S   0  0  0  0  0  0  0  0  0  0  0  0
    3.9684   70.6352   79.9843 O   0  0  0  0  0  0  0  0  0  0  0  0
    1.6866   69.6800   79.4922 O   0  0  0  0  0  0  0  0  0  0  0  0
    1.9350   71.6012   81.1641 N   0  0  0  0  0  0  0  0  0  0  0  0
    2.8634   72.5843   81.7705 C   0  0  0  0  0  0  0  0  0  0  0  0
    2.0882   73.6550   82.5429 C   0  0  0  0  0  0  0  0  0  0  0  0
    0.7225   73.9761   81.8991 C   0  0  0  0  0  0  0  0  0  0  0  0
   -0.1368   72.6914   81.8560 C   0  0  0  0  0  0  0  0  0  0  0  0
    0.6862   71.4009   81.9234 C   0  0  0  0  0  0  0  0  0  0  0  0
    0.8783   74.6506   80.4978 C   0  0  0  0  0  0  0  0  0  0  0  0
   -0.3187   74.3820   79.5563 C   0  0  0  0  0  0  0  0  0  0  0  0
   -0.7020   75.6030   78.9223 O   0  0  0  0  0  0  0  0  0  0  0  0
   -1.8985   75.4811   78.1763 N   0  0  0  0  0  0  0  0  0  0  0  0
   -2.5303   74.4311   78.2928 O   0  0  0  0  0  0  0  0  0  0  0  0
   -2.1415   76.4811   77.5047 O   0  0  0  0  0  0  0  0  0  0  0  0
    0.9664   76.0661   80.7386 O   0  0  0  0  0  0  0  0  0  0  0  0
    2.2452   76.6216   80.4890 N   0  0  0  0  0  0  0  0  0  0  0  0
    2.9923   76.0019   79.7337 O   0  0  0  0  0  0  0  0  0  0  0  0
    2.4176   77.6893   81.0719 O   0  0  0  0  0  0  0  0  0  0  0  0
    3.2234   66.3173   84.8598 O   0  0  0  0  0  0  0  0  0  0  0  0
    4.4452   65.5894   85.0046 C   0  0  0  0  0  0  0  0  0  0  0  0
    6.6338   66.3319   86.0445 C   0  0  0  0  0  0  0  0  0  0  0  0
    5.1513   66.0696   86.2710 C   0  0  0  0  0  0  0  0  0  0  0  0
 43 44  1  0  0  0
 44 42  1  0  0  0
 42 41  1  0  0  0
 41  1  1  0  0  0
  1  2  1  0  0  0
  2  3  2  0  0  0
  3  4  1  0  0  0
  4 22  1  0  0  0
 22 23  2  0  0  0
 22 24  2  0  0  0
 22 25  1  0  0  0
 25 26  1  0  0  0
 26 27  1  0  0  0
 27 28  1  0  0  0
 28 31  1  0  0  0
 31 32  1  0  0  0
 32 33  1  0  0  0
 33 34  1  0  0  0
 34 35  2  0  0  0
 34 36  1  0  0  0
 31 37  1  0  0  0
 37 38  1  0  0  0
 38 39  2  0  0  0
 38 40  1  0  0  0
 28 29  1  0  0  0
 29 30  1  0  0  0
  4  5  2  0  0  0
  5  6  1  0  0  0
  6  7  1  0  0  0
  7  8  2  0  0  0
  8  9  1  0  0  0
  9 10  1  0  0  0
 10 19  1  0  0  0
 19 20  1  0  0  0
 20 21  1  0  0  0
 10 11  2  0  0  0
 11 12  1  0  0  0
 12 13  1  0  0  0
 12 14  1  0  0  0
 14 15  1  0  0  0
 15 16  2  0  0  0
 15 17  1  0  0  0
  6  1  2  0  0  0
 17  7  1  0  0  0
 30 25  1  0  0  0
 14  9  2  0  0  0
 17 18  1  0  0  0
M  CHG 1  34   1
M  CHG 1  36  -1
M  CHG 1  38   1
M  CHG 1  40  -1
M  END
> <minimizedAffinity>
-1.58939

$$$$
