


 35 38  0  0  0  0  0  0  0  0999 V2000
    2.3378   67.2119   83.5623 C   0  0  0  0  0  0  0  0  0  0  0  0
    1.8151   67.9786   82.5048 C   0  0  0  0  0  0  0  0  0  0  0  0
    2.5287   69.0645   81.9968 C   0  0  0  0  0  0  0  0  0  0  0  0
    3.7820   69.3904   82.5107 C   0  0  0  0  0  0  0  0  0  0  0  0
    4.3184   68.6333   83.5543 C   0  0  0  0  0  0  0  0  0  0  0  0
    3.6094   67.5465   84.0889 C   0  0  0  0  0  0  0  0  0  0  0  0
   -0.6063   63.3431   83.8949 N   0  0  0  0  0  0  0  0  0  0  0  0
   -1.0921   62.5384   84.9303 C   0  0  0  0  0  0  0  0  0  0  0  0
   -1.7939   61.5472   84.7069 O   0  0  0  0  0  0  0  0  0  0  0  0
   -0.7456   62.9033   86.2490 N   0  0  0  0  0  0  0  0  0  0  0  0
   -1.2707   62.0640   87.3075 C   0  0  0  0  0  0  0  0  0  0  0  0
    0.0894   63.9654   86.6054 C   0  0  0  0  0  0  0  0  0  0  0  0
    0.4096   64.2551   87.7535 O   0  0  0  0  0  0  0  0  0  0  0  0
    0.5499   64.6939   85.4818 C   0  0  0  0  0  0  0  0  0  0  0  0
    1.3721   65.7747   85.3996 N   0  0  0  0  0  0  0  0  0  0  0  0
    1.5157   66.0974   84.0637 C   0  0  0  0  0  0  0  0  0  0  0  0
    0.8065   65.2552   83.3205 N   0  0  0  0  0  0  0  0  0  0  0  0
    0.2197   64.3982   84.1999 C   0  0  0  0  0  0  0  0  0  0  0  0
    1.8106   66.2696   86.1665 H   0  0  0  0  0  0  0  0  0  0  0  0
   -0.9108   63.0071   82.5082 C   0  0  0  0  0  0  0  0  0  0  0  0
   -3.0527   62.5730   81.2548 C   0  0  0  0  0  0  0  0  0  0  0  0
   -2.2586   63.5806   82.0693 C   0  0  0  0  0  0  0  0  0  0  0  0
    1.8659   70.0181   80.6541 S   0  0  0  0  0  0  0  0  0  0  0  0
    0.8406   69.2421   79.9912 O   0  0  0  0  0  0  0  0  0  0  0  0
    2.9897   70.5516   79.9126 O   0  0  0  0  0  0  0  0  0  0  0  0
    1.1044   71.3165   81.4581 N   0  0  0  0  0  0  0  0  0  0  0  0
   -0.3650   71.4646   81.1814 C   0  0  0  0  0  0  0  0  0  0  0  0
   -0.8591   72.8745   81.5536 C   0  0  0  0  0  0  0  0  0  0  0  0
   -0.2389   73.9343   80.7333 N   0  0  0  0  0  0  0  0  0  0  0  0
   -0.3193   75.2255   81.4105 C   0  0  0  0  0  0  0  0  0  0  0  0
    1.1483   73.5887   80.3602 C   0  0  0  0  0  0  0  0  0  0  0  0
    1.8465   72.6173   81.3289 C   0  0  0  0  0  0  0  0  0  0  0  0
    4.0808   66.7666   85.1181 O   0  0  0  0  0  0  0  0  0  0  0  0
    5.2478   65.9768   84.8845 C   0  0  0  0  0  0  0  0  0  0  0  0
    5.5283   65.1816   86.1471 C   0  0  0  0  0  0  0  0  0  0  0  0
 21 22  1  0  0  0
 22 20  1  0  0  0
 20  7  1  0  0  0
  7  8  1  0  0  0
  8  9  2  0  0  0
  8 10  1  0  0  0
 10 11  1  0  0  0
 10 12  1  0  0  0
 12 13  2  0  0  0
 12 14  1  0  0  0
 14 15  1  0  0  0
 15 16  1  0  0  0
 16  1  1  0  0  0
  1  2  1  0  0  0
  2  3  2  0  0  0
  3 23  1  0  0  0
 23 24  2  0  0  0
 23 25  2  0  0  0
 23 26  1  0  0  0
 26 27  1  0  0  0
 27 28  1  0  0  0
 28 29  1  0  0  0
 29 30  1  0  0  0
 29 31  1  0  0  0
 31 32  1  0  0  0
  3  4  1  0  0  0
  4  5  2  0  0  0
  5  6  1  0  0  0
  6 33  1  0  0  0
 33 34  1  0  0  0
 34 35  1  0  0  0
 16 17  2  0  0  0
 17 18  1  0  0  0
 18  7  1  0  0  0
 18 14  2  0  0  0
  6  1  2  0  0  0
 32 26  1  0  0  0
 15 19  1  0  0  0
M  END
> <minimizedAffinity>
-9.86178

$$$$



 35 38  0  0  0  0  0  0  0  0999 V2000
    2.3863   66.8921   84.0152 C   0  0  0  0  0  0  0  0  0  0  0  0
    1.8906   67.8836   83.1489 C   0  0  0  0  0  0  0  0  0  0  0  0
    2.7045   68.9419   82.7437 C   0  0  0  0  0  0  0  0  0  0  0  0
    4.0289   69.0190   83.1692 C   0  0  0  0  0  0  0  0  0  0  0  0
    4.5384   68.0376   84.0219 C   0  0  0  0  0  0  0  0  0  0  0  0
    3.7312   66.9734   84.4526 C   0  0  0  0  0  0  0  0  0  0  0  0
   -0.7862   63.1934   84.0129 N   0  0  0  0  0  0  0  0  0  0  0  0
   -1.4093   62.4058   84.9861 C   0  0  0  0  0  0  0  0  0  0  0  0
   -2.1415   61.4587   84.6830 O   0  0  0  0  0  0  0  0  0  0  0  0
   -1.1661   62.7351   86.3368 N   0  0  0  0  0  0  0  0  0  0  0  0
   -1.8322   61.9149   87.3287 C   0  0  0  0  0  0  0  0  0  0  0  0
   -0.3097   63.7438   86.7856 C   0  0  0  0  0  0  0  0  0  0  0  0
   -0.0811   64.0017   87.9629 O   0  0  0  0  0  0  0  0  0  0  0  0
    0.2922   64.4579   85.7211 C   0  0  0  0  0  0  0  0  0  0  0  0
    1.1772   65.4911   85.7324 N   0  0  0  0  0  0  0  0  0  0  0  0
    1.4609   65.8205   84.4208 C   0  0  0  0  0  0  0  0  0  0  0  0
    0.7775   65.0286   83.6019 N   0  0  0  0  0  0  0  0  0  0  0  0
    0.0655   64.1963   84.4096 C   0  0  0  0  0  0  0  0  0  0  0  0
    1.5699   65.9514   86.5444 H   0  0  0  0  0  0  0  0  0  0  0  0
   -0.9799   62.8913   82.5988 C   0  0  0  0  0  0  0  0  0  0  0  0
   -3.0759   62.5266   81.2493 C   0  0  0  0  0  0  0  0  0  0  0  0
   -2.2606   63.5248   82.0544 C   0  0  0  0  0  0  0  0  0  0  0  0
    2.0730   70.1812   81.6407 S   0  0  0  0  0  0  0  0  0  0  0  0
    0.6960   70.4579   81.9876 O   0  0  0  0  0  0  0  0  0  0  0  0
    2.4347   69.7819   80.2965 O   0  0  0  0  0  0  0  0  0  0  0  0
    3.0030   71.5529   82.0481 N   0  0  0  0  0  0  0  0  0  0  0  0
    2.3938   72.4508   83.0876 C   0  0  0  0  0  0  0  0  0  0  0  0
    3.0404   73.8479   83.0597 C   0  0  0  0  0  0  0  0  0  0  0  0
    2.8001   74.5655   81.7917 N   0  0  0  0  0  0  0  0  0  0  0  0
    3.8001   75.6107   81.5920 C   0  0  0  0  0  0  0  0  0  0  0  0
    2.7341   73.6345   80.6464 C   0  0  0  0  0  0  0  0  0  0  0  0
    3.4999   72.3151   80.8516 C   0  0  0  0  0  0  0  0  0  0  0  0
    4.1722   65.9801   85.2943 O   0  0  0  0  0  0  0  0  0  0  0  0
    5.5571   65.6326   85.2583 C   0  0  0  0  0  0  0  0  0  0  0  0
    6.0613   65.5932   86.6899 C   0  0  0  0  0  0  0  0  0  0  0  0
 21 22  1  0  0  0
 22 20  1  0  0  0
 20  7  1  0  0  0
  7  8  1  0  0  0
  8  9  2  0  0  0
  8 10  1  0  0  0
 10 11  1  0  0  0
 10 12  1  0  0  0
 12 13  2  0  0  0
 12 14  1  0  0  0
 14 15  1  0  0  0
 15 16  1  0  0  0
 16  1  1  0  0  0
  1  2  1  0  0  0
  2  3  2  0  0  0
  3 23  1  0  0  0
 23 24  2  0  0  0
 23 25  2  0  0  0
 23 26  1  0  0  0
 26 27  1  0  0  0
 27 28  1  0  0  0
 28 29  1  0  0  0
 29 30  1  0  0  0
 29 31  1  0  0  0
 31 32  1  0  0  0
  3  4  1  0  0  0
  4  5  2  0  0  0
  5  6  1  0  0  0
  6 33  1  0  0  0
 33 34  1  0  0  0
 34 35  1  0  0  0
 16 17  2  0  0  0
 17 18  1  0  0  0
 18  7  1  0  0  0
 18 14  2  0  0  0
  6  1  2  0  0  0
 32 26  1  0  0  0
 15 19  1  0  0  0
M  END
> <minimizedAffinity>
-9.62956

$$$$



 35 38  0  0  0  0  0  0  0  0999 V2000
    0.4577   64.7952   82.7430 C   0  0  0  0  0  0  0  0  0  0  0  0
    0.9884   65.9025   82.0561 C   0  0  0  0  0  0  0  0  0  0  0  0
    1.5822   66.9527   82.7568 C   0  0  0  0  0  0  0  0  0  0  0  0
    1.6829   66.9092   84.1457 C   0  0  0  0  0  0  0  0  0  0  0  0
    1.1691   65.8126   84.8411 C   0  0  0  0  0  0  0  0  0  0  0  0
    0.5548   64.7533   84.1555 C   0  0  0  0  0  0  0  0  0  0  0  0
   -0.7925   61.7690   79.1341 N   0  0  0  0  0  0  0  0  0  0  0  0
   -1.6655   60.6860   78.9903 C   0  0  0  0  0  0  0  0  0  0  0  0
   -1.7294   60.0392   77.9403 O   0  0  0  0  0  0  0  0  0  0  0  0
   -2.4745   60.3566   80.0990 N   0  0  0  0  0  0  0  0  0  0  0  0
   -3.3815   59.2398   79.9240 C   0  0  0  0  0  0  0  0  0  0  0  0
   -2.4360   60.9828   81.3474 C   0  0  0  0  0  0  0  0  0  0  0  0
   -3.1216   60.6683   82.3147 O   0  0  0  0  0  0  0  0  0  0  0  0
   -1.4981   62.0428   81.3939 C   0  0  0  0  0  0  0  0  0  0  0  0
   -1.1568   62.8835   82.4076 N   0  0  0  0  0  0  0  0  0  0  0  0
   -0.1775   63.7378   81.9381 C   0  0  0  0  0  0  0  0  0  0  0  0
    0.0929   63.4551   80.6686 N   0  0  0  0  0  0  0  0  0  0  0  0
   -0.7213   62.4136   80.3456 C   0  0  0  0  0  0  0  0  0  0  0  0
   -1.5391   62.8983   83.3451 H   0  0  0  0  0  0  0  0  0  0  0  0
    0.0860   62.1467   78.0321 C   0  0  0  0  0  0  0  0  0  0  0  0
   -0.2170   64.5460   77.3259 C   0  0  0  0  0  0  0  0  0  0  0  0
   -0.6054   63.1014   77.0583 C   0  0  0  0  0  0  0  0  0  0  0  0
    2.2598   68.3396   81.8799 S   0  0  0  0  0  0  0  0  0  0  0  0
    2.2485   68.0475   80.4630 O   0  0  0  0  0  0  0  0  0  0  0  0
    3.4873   68.7124   82.5519 O   0  0  0  0  0  0  0  0  0  0  0  0
    1.1089   69.5652   82.1727 N   0  0  0  0  0  0  0  0  0  0  0  0
    0.1426   69.8144   81.0493 C   0  0  0  0  0  0  0  0  0  0  0  0
   -0.5326   71.1904   81.1950 C   0  0  0  0  0  0  0  0  0  0  0  0
    0.4228   72.3116   81.0914 N   0  0  0  0  0  0  0  0  0  0  0  0
   -0.1211   73.5135   81.7173 C   0  0  0  0  0  0  0  0  0  0  0  0
    1.7452   71.9491   81.6415 C   0  0  0  0  0  0  0  0  0  0  0  0
    1.7110   70.8359   82.7040 C   0  0  0  0  0  0  0  0  0  0  0  0
    0.0263   63.6500   84.7825 O   0  0  0  0  0  0  0  0  0  0  0  0
    0.0495   63.6111   86.2101 C   0  0  0  0  0  0  0  0  0  0  0  0
   -0.7810   62.4200   86.6537 C   0  0  0  0  0  0  0  0  0  0  0  0
 21 22  1  0  0  0
 22 20  1  0  0  0
 20  7  1  0  0  0
  7  8  1  0  0  0
  8  9  2  0  0  0
  8 10  1  0  0  0
 10 11  1  0  0  0
 10 12  1  0  0  0
 12 13  2  0  0  0
 12 14  1  0  0  0
 14 15  1  0  0  0
 15 16  1  0  0  0
 16  1  1  0  0  0
  1  2  1  0  0  0
  2  3  2  0  0  0
  3 23  1  0  0  0
 23 24  2  0  0  0
 23 25  2  0  0  0
 23 26  1  0  0  0
 26 27  1  0  0  0
 27 28  1  0  0  0
 28 29  1  0  0  0
 29 30  1  0  0  0
 29 31  1  0  0  0
 31 32  1  0  0  0
  3  4  1  0  0  0
  4  5  2  0  0  0
  5  6  1  0  0  0
  6 33  1  0  0  0
 33 34  1  0  0  0
 34 35  1  0  0  0
 16 17  2  0  0  0
 17 18  1  0  0  0
 18  7  1  0  0  0
 18 14  2  0  0  0
  6  1  2  0  0  0
 32 26  1  0  0  0
 15 19  1  0  0  0
M  END
> <minimizedAffinity>
-9.47536

$$$$



 35 38  0  0  0  0  0  0  0  0999 V2000
    2.3915   66.9004   83.9735 C   0  0  0  0  0  0  0  0  0  0  0  0
    1.8626   67.8816   83.1150 C   0  0  0  0  0  0  0  0  0  0  0  0
    2.6557   68.9431   82.6785 C   0  0  0  0  0  0  0  0  0  0  0  0
    3.9914   69.0338   83.0643 C   0  0  0  0  0  0  0  0  0  0  0  0
    4.5336   68.0627   83.9086 C   0  0  0  0  0  0  0  0  0  0  0  0
    3.7479   66.9955   84.3705 C   0  0  0  0  0  0  0  0  0  0  0  0
   -0.7653   63.1902   84.0913 N   0  0  0  0  0  0  0  0  0  0  0  0
   -1.3458   62.3984   85.0872 C   0  0  0  0  0  0  0  0  0  0  0  0
   -2.0863   61.4492   84.8118 O   0  0  0  0  0  0  0  0  0  0  0  0
   -1.0495   62.7260   86.4277 N   0  0  0  0  0  0  0  0  0  0  0  0
   -1.6722   61.9014   87.4439 C   0  0  0  0  0  0  0  0  0  0  0  0
   -0.1794   63.7369   86.8437 C   0  0  0  0  0  0  0  0  0  0  0  0
    0.0956   63.9933   88.0113 O   0  0  0  0  0  0  0  0  0  0  0  0
    0.3765   64.4553   85.7573 C   0  0  0  0  0  0  0  0  0  0  0  0
    1.2576   65.4917   85.7351 N   0  0  0  0  0  0  0  0  0  0  0  0
    1.4870   65.8246   84.4138 C   0  0  0  0  0  0  0  0  0  0  0  0
    0.7740   65.0318   83.6215 N   0  0  0  0  0  0  0  0  0  0  0  0
    0.0981   64.1954   84.4555 C   0  0  0  0  0  0  0  0  0  0  0  0
    1.6811   65.9518   86.5315 H   0  0  0  0  0  0  0  0  0  0  0  0
   -1.0148   62.8900   82.6855 C   0  0  0  0  0  0  0  0  0  0  0  0
    0.2094   62.1465   80.6129 C   0  0  0  0  0  0  0  0  0  0  0  0
    0.0444   61.9490   82.1106 C   0  0  0  0  0  0  0  0  0  0  0  0
    1.9822   70.1693   81.5856 S   0  0  0  0  0  0  0  0  0  0  0  0
    3.0717   70.8720   80.9434 O   0  0  0  0  0  0  0  0  0  0  0  0
    0.9666   70.8898   82.3249 O   0  0  0  0  0  0  0  0  0  0  0  0
    1.1970   69.2236   80.4017 N   0  0  0  0  0  0  0  0  0  0  0  0
   -0.0633   68.5456   80.8596 C   0  0  0  0  0  0  0  0  0  0  0  0
   -0.4415   67.3867   79.9192 C   0  0  0  0  0  0  0  0  0  0  0  0
    0.5597   66.3013   79.9158 N   0  0  0  0  0  0  0  0  0  0  0  0
    0.4508   65.5017   78.6988 C   0  0  0  0  0  0  0  0  0  0  0  0
    1.9268   66.8245   80.1158 C   0  0  0  0  0  0  0  0  0  0  0  0
    2.1212   68.2866   79.6755 C   0  0  0  0  0  0  0  0  0  0  0  0
    4.2214   66.0119   85.2060 O   0  0  0  0  0  0  0  0  0  0  0  0
    5.2057   66.3696   86.1773 C   0  0  0  0  0  0  0  0  0  0  0  0
    5.1798   65.3170   87.2712 C   0  0  0  0  0  0  0  0  0  0  0  0
 21 22  1  0  0  0
 22 20  1  0  0  0
 20  7  1  0  0  0
  7  8  1  0  0  0
  8  9  2  0  0  0
  8 10  1  0  0  0
 10 11  1  0  0  0
 10 12  1  0  0  0
 12 13  2  0  0  0
 12 14  1  0  0  0
 14 15  1  0  0  0
 15 16  1  0  0  0
 16  1  1  0  0  0
  1  2  1  0  0  0
  2  3  2  0  0  0
  3 23  1  0  0  0
 23 24  2  0  0  0
 23 25  2  0  0  0
 23 26  1  0  0  0
 26 27  1  0  0  0
 27 28  1  0  0  0
 28 29  1  0  0  0
 29 30  1  0  0  0
 29 31  1  0  0  0
 31 32  1  0  0  0
  3  4  1  0  0  0
  4  5  2  0  0  0
  5  6  1  0  0  0
  6 33  1  0  0  0
 33 34  1  0  0  0
 34 35  1  0  0  0
 16 17  2  0  0  0
 17 18  1  0  0  0
 18  7  1  0  0  0
 18 14  2  0  0  0
  6  1  2  0  0  0
 32 26  1  0  0  0
 15 19  1  0  0  0
M  END
> <minimizedAffinity>
-9.36923

$$$$



 35 38  0  0  0  0  0  0  0  0999 V2000
    0.5240   65.0853   81.9103 C   0  0  0  0  0  0  0  0  0  0  0  0
    0.3116   64.3597   80.7238 C   0  0  0  0  0  0  0  0  0  0  0  0
    0.6616   64.9045   79.4880 C   0  0  0  0  0  0  0  0  0  0  0  0
    1.2514   66.1644   79.4116 C   0  0  0  0  0  0  0  0  0  0  0  0
    1.4771   66.8931   80.5812 C   0  0  0  0  0  0  0  0  0  0  0  0
    1.1183   66.3687   81.8325 C   0  0  0  0  0  0  0  0  0  0  0  0
   -1.8086   62.4590   85.2878 N   0  0  0  0  0  0  0  0  0  0  0  0
   -1.6384   62.2007   86.6516 C   0  0  0  0  0  0  0  0  0  0  0  0
   -2.3691   61.4116   87.2585 O   0  0  0  0  0  0  0  0  0  0  0  0
   -0.5914   62.8788   87.3120 N   0  0  0  0  0  0  0  0  0  0  0  0
   -0.4412   62.6070   88.7276 C   0  0  0  0  0  0  0  0  0  0  0  0
    0.3264   63.7415   86.7073 C   0  0  0  0  0  0  0  0  0  0  0  0
    1.2525   64.3018   87.2845 O   0  0  0  0  0  0  0  0  0  0  0  0
    0.0831   63.9081   85.3222 C   0  0  0  0  0  0  0  0  0  0  0  0
    0.7406   64.6455   84.3869 N   0  0  0  0  0  0  0  0  0  0  0  0
    0.1049   64.4567   83.1747 C   0  0  0  0  0  0  0  0  0  0  0  0
   -0.9245   63.6319   83.3321 N   0  0  0  0  0  0  0  0  0  0  0  0
   -0.9277   63.3007   84.6521 C   0  0  0  0  0  0  0  0  0  0  0  0
    1.5518   65.2341   84.5313 H   0  0  0  0  0  0  0  0  0  0  0  0
   -2.8593   61.7735   84.5430 C   0  0  0  0  0  0  0  0  0  0  0  0
   -3.2757   60.1493   82.6627 C   0  0  0  0  0  0  0  0  0  0  0  0
   -2.3397   61.2085   83.2206 C   0  0  0  0  0  0  0  0  0  0  0  0
    0.4008   63.9758   77.9977 S   0  0  0  0  0  0  0  0  0  0  0  0
    1.5714   63.1654   77.7411 O   0  0  0  0  0  0  0  0  0  0  0  0
   -0.0967   64.8995   76.9995 O   0  0  0  0  0  0  0  0  0  0  0  0
   -0.8776   62.9304   78.4279 N   0  0  0  0  0  0  0  0  0  0  0  0
   -0.4637   61.5326   78.7918 C   0  0  0  0  0  0  0  0  0  0  0  0
   -1.6579   60.5638   78.7145 C   0  0  0  0  0  0  0  0  0  0  0  0
   -2.1961   60.4255   77.3464 N   0  0  0  0  0  0  0  0  0  0  0  0
   -3.5726   59.9391   77.3794 C   0  0  0  0  0  0  0  0  0  0  0  0
   -2.0706   61.6853   76.5849 C   0  0  0  0  0  0  0  0  0  0  0  0
   -2.0228   62.9545   77.4544 C   0  0  0  0  0  0  0  0  0  0  0  0
    1.3101   67.0379   83.0179 O   0  0  0  0  0  0  0  0  0  0  0  0
    2.1623   68.1840   83.0140 C   0  0  0  0  0  0  0  0  0  0  0  0
    2.8370   68.2632   84.3718 C   0  0  0  0  0  0  0  0  0  0  0  0
 21 22  1  0  0  0
 22 20  1  0  0  0
 20  7  1  0  0  0
  7  8  1  0  0  0
  8  9  2  0  0  0
  8 10  1  0  0  0
 10 11  1  0  0  0
 10 12  1  0  0  0
 12 13  2  0  0  0
 12 14  1  0  0  0
 14 15  1  0  0  0
 15 16  1  0  0  0
 16  1  1  0  0  0
  1  2  1  0  0  0
  2  3  2  0  0  0
  3 23  1  0  0  0
 23 24  2  0  0  0
 23 25  2  0  0  0
 23 26  1  0  0  0
 26 27  1  0  0  0
 27 28  1  0  0  0
 28 29  1  0  0  0
 29 30  1  0  0  0
 29 31  1  0  0  0
 31 32  1  0  0  0
  3  4  1  0  0  0
  4  5  2  0  0  0
  5  6  1  0  0  0
  6 33  1  0  0  0
 33 34  1  0  0  0
 34 35  1  0  0  0
 16 17  2  0  0  0
 17 18  1  0  0  0
 18  7  1  0  0  0
 18 14  2  0  0  0
  6  1  2  0  0  0
 32 26  1  0  0  0
 15 19  1  0  0  0
M  END
> <minimizedAffinity>
-9.29920

$$$$



 35 38  0  0  0  0  0  0  0  0999 V2000
    2.1897   66.7385   83.8139 C   0  0  0  0  0  0  0  0  0  0  0  0
    1.7556   67.8078   83.0091 C   0  0  0  0  0  0  0  0  0  0  0  0
    2.5891   68.9018   82.7746 C   0  0  0  0  0  0  0  0  0  0  0  0
    3.8740   68.9404   83.3118 C   0  0  0  0  0  0  0  0  0  0  0  0
    4.3227   67.8825   84.1051 C   0  0  0  0  0  0  0  0  0  0  0  0
    3.4940   66.7801   84.3649 C   0  0  0  0  0  0  0  0  0  0  0  0
   -0.7644   63.4423   85.8520 N   0  0  0  0  0  0  0  0  0  0  0  0
   -1.6182   62.4371   85.3869 C   0  0  0  0  0  0  0  0  0  0  0  0
   -2.3226   61.7768   86.1567 O   0  0  0  0  0  0  0  0  0  0  0  0
   -1.6462   62.2060   83.9948 N   0  0  0  0  0  0  0  0  0  0  0  0
   -2.5274   61.1510   83.5356 C   0  0  0  0  0  0  0  0  0  0  0  0
   -0.9378   62.9347   83.0359 C   0  0  0  0  0  0  0  0  0  0  0  0
   -0.9933   62.7460   81.8251 O   0  0  0  0  0  0  0  0  0  0  0  0
   -0.1304   63.9462   83.6106 C   0  0  0  0  0  0  0  0  0  0  0  0
    0.6927   64.8620   83.0320 N   0  0  0  0  0  0  0  0  0  0  0  0
    1.2452   65.6309   84.0384 C   0  0  0  0  0  0  0  0  0  0  0  0
    0.7942   65.2171   85.2175 N   0  0  0  0  0  0  0  0  0  0  0  0
   -0.0493   64.1850   84.9434 C   0  0  0  0  0  0  0  0  0  0  0  0
    0.8814   64.9769   82.0438 H   0  0  0  0  0  0  0  0  0  0  0  0
   -0.7056   63.7448   87.2780 C   0  0  0  0  0  0  0  0  0  0  0  0
    0.2205   62.2829   89.1090 C   0  0  0  0  0  0  0  0  0  0  0  0
    0.5569   63.1758   87.9262 C   0  0  0  0  0  0  0  0  0  0  0  0
    2.0365   70.2402   81.7476 S   0  0  0  0  0  0  0  0  0  0  0  0
    0.6989   70.6168   82.1502 O   0  0  0  0  0  0  0  0  0  0  0  0
    2.3242   69.8743   80.3763 O   0  0  0  0  0  0  0  0  0  0  0  0
    3.0928   71.5073   82.1847 N   0  0  0  0  0  0  0  0  0  0  0  0
    2.5037   72.5411   83.1023 C   0  0  0  0  0  0  0  0  0  0  0  0
    3.3291   73.8406   83.0746 C   0  0  0  0  0  0  0  0  0  0  0  0
    3.3186   74.4980   81.7524 N   0  0  0  0  0  0  0  0  0  0  0  0
    4.4635   75.3935   81.6116 C   0  0  0  0  0  0  0  0  0  0  0  0
    3.2487   73.5098   80.6564 C   0  0  0  0  0  0  0  0  0  0  0  0
    3.8075   72.1206   81.0132 C   0  0  0  0  0  0  0  0  0  0  0  0
    3.8754   65.7114   85.1407 O   0  0  0  0  0  0  0  0  0  0  0  0
    5.2693   65.5227   85.3886 C   0  0  0  0  0  0  0  0  0  0  0  0
    5.4379   65.2057   86.8639 C   0  0  0  0  0  0  0  0  0  0  0  0
 21 22  1  0  0  0
 22 20  1  0  0  0
 20  7  1  0  0  0
  7  8  1  0  0  0
  8  9  2  0  0  0
  8 10  1  0  0  0
 10 11  1  0  0  0
 10 12  1  0  0  0
 12 13  2  0  0  0
 12 14  1  0  0  0
 14 15  1  0  0  0
 15 16  1  0  0  0
 16  1  1  0  0  0
  1  2  1  0  0  0
  2  3  2  0  0  0
  3 23  1  0  0  0
 23 24  2  0  0  0
 23 25  2  0  0  0
 23 26  1  0  0  0
 26 27  1  0  0  0
 27 28  1  0  0  0
 28 29  1  0  0  0
 29 30  1  0  0  0
 29 31  1  0  0  0
 31 32  1  0  0  0
  3  4  1  0  0  0
  4  5  2  0  0  0
  5  6  1  0  0  0
  6 33  1  0  0  0
 33 34  1  0  0  0
 34 35  1  0  0  0
 16 17  2  0  0  0
 17 18  1  0  0  0
 18  7  1  0  0  0
 18 14  2  0  0  0
  6  1  2  0  0  0
 32 26  1  0  0  0
 15 19  1  0  0  0
M  END
> <minimizedAffinity>
-9.29091

$$$$



 35 38  0  0  0  0  0  0  0  0999 V2000
    0.1285   63.9806   83.7175 C   0  0  0  0  0  0  0  0  0  0  0  0
    0.9229   65.1078   83.4384 C   0  0  0  0  0  0  0  0  0  0  0  0
    1.4534   65.8752   84.4758 C   0  0  0  0  0  0  0  0  0  0  0  0
    1.2270   65.5220   85.8044 C   0  0  0  0  0  0  0  0  0  0  0  0
    0.4482   64.4006   86.0976 C   0  0  0  0  0  0  0  0  0  0  0  0
   -0.1066   63.6246   85.0682 C   0  0  0  0  0  0  0  0  0  0  0  0
   -0.5671   61.9982   79.3207 N   0  0  0  0  0  0  0  0  0  0  0  0
   -1.5111   61.1424   78.7443 C   0  0  0  0  0  0  0  0  0  0  0  0
   -1.3951   60.7359   77.5840 O   0  0  0  0  0  0  0  0  0  0  0  0
   -2.6074   60.7564   79.5450 N   0  0  0  0  0  0  0  0  0  0  0  0
   -3.5806   59.8804   78.9239 C   0  0  0  0  0  0  0  0  0  0  0  0
   -2.8000   61.1089   80.8833 C   0  0  0  0  0  0  0  0  0  0  0  0
   -3.7407   60.7424   81.5799 O   0  0  0  0  0  0  0  0  0  0  0  0
   -1.7725   61.9497   81.3761 C   0  0  0  0  0  0  0  0  0  0  0  0
   -1.5878   62.4993   82.6068 N   0  0  0  0  0  0  0  0  0  0  0  0
   -0.4187   63.2351   82.5712 C   0  0  0  0  0  0  0  0  0  0  0  0
    0.1206   63.1612   81.3594 N   0  0  0  0  0  0  0  0  0  0  0  0
   -0.7168   62.3697   80.6353 C   0  0  0  0  0  0  0  0  0  0  0  0
   -2.1868   62.4005   83.4172 H   0  0  0  0  0  0  0  0  0  0  0  0
    0.6005   62.4167   78.5526 C   0  0  0  0  0  0  0  0  0  0  0  0
    0.9781   64.9040   78.4200 C   0  0  0  0  0  0  0  0  0  0  0  0
    0.3294   63.6973   77.7624 C   0  0  0  0  0  0  0  0  0  0  0  0
    2.4646   67.2884   84.1130 S   0  0  0  0  0  0  0  0  0  0  0  0
    2.4257   68.1930   85.2413 O   0  0  0  0  0  0  0  0  0  0  0  0
    2.1062   67.7413   82.7850 O   0  0  0  0  0  0  0  0  0  0  0  0
    4.0311   66.6162   84.0326 N   0  0  0  0  0  0  0  0  0  0  0  0
    4.3276   65.5643   85.0638 C   0  0  0  0  0  0  0  0  0  0  0  0
    5.8449   65.3532   85.2188 C   0  0  0  0  0  0  0  0  0  0  0  0
    6.5410   66.5512   85.7292 N   0  0  0  0  0  0  0  0  0  0  0  0
    7.9613   66.5060   85.3930 C   0  0  0  0  0  0  0  0  0  0  0  0
    5.8979   67.7944   85.2561 C   0  0  0  0  0  0  0  0  0  0  0  0
    5.1200   67.6479   83.9360 C   0  0  0  0  0  0  0  0  0  0  0  0
   -0.8847   62.5137   85.2918 O   0  0  0  0  0  0  0  0  0  0  0  0
   -1.3002   62.2410   86.6309 C   0  0  0  0  0  0  0  0  0  0  0  0
   -2.7448   62.6883   86.7669 C   0  0  0  0  0  0  0  0  0  0  0  0
 21 22  1  0  0  0
 22 20  1  0  0  0
 20  7  1  0  0  0
  7  8  1  0  0  0
  8  9  2  0  0  0
  8 10  1  0  0  0
 10 11  1  0  0  0
 10 12  1  0  0  0
 12 13  2  0  0  0
 12 14  1  0  0  0
 14 15  1  0  0  0
 15 16  1  0  0  0
 16  1  1  0  0  0
  1  2  1  0  0  0
  2  3  2  0  0  0
  3 23  1  0  0  0
 23 24  2  0  0  0
 23 25  2  0  0  0
 23 26  1  0  0  0
 26 27  1  0  0  0
 27 28  1  0  0  0
 28 29  1  0  0  0
 29 30  1  0  0  0
 29 31  1  0  0  0
 31 32  1  0  0  0
  3  4  1  0  0  0
  4  5  2  0  0  0
  5  6  1  0  0  0
  6 33  1  0  0  0
 33 34  1  0  0  0
 34 35  1  0  0  0
 16 17  2  0  0  0
 17 18  1  0  0  0
 18  7  1  0  0  0
 18 14  2  0  0  0
  6  1  2  0  0  0
 32 26  1  0  0  0
 15 19  1  0  0  0
M  END
> <minimizedAffinity>
-9.23015

$$$$



 35 38  0  0  0  0  0  0  0  0999 V2000
    2.4991   66.4844   83.9368 C   0  0  0  0  0  0  0  0  0  0  0  0
    2.2727   67.4188   82.9096 C   0  0  0  0  0  0  0  0  0  0  0  0
    3.1847   68.4480   82.6744 C   0  0  0  0  0  0  0  0  0  0  0  0
    4.3472   68.5510   83.4355 C   0  0  0  0  0  0  0  0  0  0  0  0
    4.5907   67.6257   84.4526 C   0  0  0  0  0  0  0  0  0  0  0  0
    3.6781   66.5922   84.7145 C   0  0  0  0  0  0  0  0  0  0  0  0
   -0.7235   63.4108   85.9150 N   0  0  0  0  0  0  0  0  0  0  0  0
   -1.6238   62.4549   85.4340 C   0  0  0  0  0  0  0  0  0  0  0  0
   -2.3935   61.8515   86.1878 O   0  0  0  0  0  0  0  0  0  0  0  0
   -1.6209   62.2061   84.0446 N   0  0  0  0  0  0  0  0  0  0  0  0
   -2.5519   61.2023   83.5692 C   0  0  0  0  0  0  0  0  0  0  0  0
   -0.8368   62.8748   83.1011 C   0  0  0  0  0  0  0  0  0  0  0  0
   -0.8645   62.6726   81.8916 O   0  0  0  0  0  0  0  0  0  0  0  0
    0.0141   63.8414   83.6901 C   0  0  0  0  0  0  0  0  0  0  0  0
    0.9122   64.6950   83.1282 N   0  0  0  0  0  0  0  0  0  0  0  0
    1.4793   65.4419   84.1431 C   0  0  0  0  0  0  0  0  0  0  0  0
    0.9647   65.0744   85.3113 N   0  0  0  0  0  0  0  0  0  0  0  0
    0.0666   64.0937   85.0218 C   0  0  0  0  0  0  0  0  0  0  0  0
    1.1400   64.7836   82.1456 H   0  0  0  0  0  0  0  0  0  0  0  0
   -0.6922   63.7295   87.3384 C   0  0  0  0  0  0  0  0  0  0  0  0
    0.1843   62.2199   89.1550 C   0  0  0  0  0  0  0  0  0  0  0  0
    0.5528   63.1597   88.0191 C   0  0  0  0  0  0  0  0  0  0  0  0
    2.8958   69.6147   81.3680 S   0  0  0  0  0  0  0  0  0  0  0  0
    2.0299   69.0066   80.3813 O   0  0  0  0  0  0  0  0  0  0  0  0
    4.1824   70.1620   80.9908 O   0  0  0  0  0  0  0  0  0  0  0  0
    2.0129   70.8453   82.1544 N   0  0  0  0  0  0  0  0  0  0  0  0
    0.6752   71.1590   81.5461 C   0  0  0  0  0  0  0  0  0  0  0  0
    0.1682   72.5384   82.0053 C   0  0  0  0  0  0  0  0  0  0  0  0
    1.0301   73.6470   81.5487 N   0  0  0  0  0  0  0  0  0  0  0  0
    0.8366   74.8294   82.3835 C   0  0  0  0  0  0  0  0  0  0  0  0
    2.4487   73.2392   81.4842 C   0  0  0  0  0  0  0  0  0  0  0  0
    2.8233   72.0815   82.4269 C   0  0  0  0  0  0  0  0  0  0  0  0
    3.8584   65.6545   85.7033 O   0  0  0  0  0  0  0  0  0  0  0  0
    5.1881   65.2096   85.9751 C   0  0  0  0  0  0  0  0  0  0  0  0
    5.4759   65.4806   87.4410 C   0  0  0  0  0  0  0  0  0  0  0  0
 21 22  1  0  0  0
 22 20  1  0  0  0
 20  7  1  0  0  0
  7  8  1  0  0  0
  8  9  2  0  0  0
  8 10  1  0  0  0
 10 11  1  0  0  0
 10 12  1  0  0  0
 12 13  2  0  0  0
 12 14  1  0  0  0
 14 15  1  0  0  0
 15 16  1  0  0  0
 16  1  1  0  0  0
  1  2  1  0  0  0
  2  3  2  0  0  0
  3 23  1  0  0  0
 23 24  2  0  0  0
 23 25  2  0  0  0
 23 26  1  0  0  0
 26 27  1  0  0  0
 27 28  1  0  0  0
 28 29  1  0  0  0
 29 30  1  0  0  0
 29 31  1  0  0  0
 31 32  1  0  0  0
  3  4  1  0  0  0
  4  5  2  0  0  0
  5  6  1  0  0  0
  6 33  1  0  0  0
 33 34  1  0  0  0
 34 35  1  0  0  0
 16 17  2  0  0  0
 17 18  1  0  0  0
 18  7  1  0  0  0
 18 14  2  0  0  0
  6  1  2  0  0  0
 32 26  1  0  0  0
 15 19  1  0  0  0
M  END
> <minimizedAffinity>
-9.20284

$$$$



 35 38  0  0  0  0  0  0  0  0999 V2000
    1.1346   65.9274   82.6197 C   0  0  0  0  0  0  0  0  0  0  0  0
    1.7773   67.1355   82.9464 C   0  0  0  0  0  0  0  0  0  0  0  0
    2.2691   67.9704   81.9426 C   0  0  0  0  0  0  0  0  0  0  0  0
    2.1078   67.6340   80.6003 C   0  0  0  0  0  0  0  0  0  0  0  0
    1.4638   66.4427   80.2597 C   0  0  0  0  0  0  0  0  0  0  0  0
    0.9755   65.5823   81.2551 C   0  0  0  0  0  0  0  0  0  0  0  0
   -1.3781   62.8145   85.4021 N   0  0  0  0  0  0  0  0  0  0  0  0
   -1.2413   62.2842   86.6889 C   0  0  0  0  0  0  0  0  0  0  0  0
   -2.0201   61.4307   87.1249 O   0  0  0  0  0  0  0  0  0  0  0  0
   -0.1710   62.7627   87.4746 N   0  0  0  0  0  0  0  0  0  0  0  0
   -0.0557   62.2099   88.8094 C   0  0  0  0  0  0  0  0  0  0  0  0
    0.7984   63.6778   87.0561 C   0  0  0  0  0  0  0  0  0  0  0  0
    1.7432   64.0638   87.7366 O   0  0  0  0  0  0  0  0  0  0  0  0
    0.5843   64.1265   85.7301 C   0  0  0  0  0  0  0  0  0  0  0  0
    1.2922   64.9978   84.9616 N   0  0  0  0  0  0  0  0  0  0  0  0
    0.6655   65.0852   83.7332 C   0  0  0  0  0  0  0  0  0  0  0  0
   -0.4067   64.3011   83.7203 N   0  0  0  0  0  0  0  0  0  0  0  0
   -0.4462   63.7171   84.9489 C   0  0  0  0  0  0  0  0  0  0  0  0
    2.1301   65.5028   85.2229 H   0  0  0  0  0  0  0  0  0  0  0  0
   -2.4512   62.3456   84.5321 C   0  0  0  0  0  0  0  0  0  0  0  0
   -2.4854   61.9260   82.0481 C   0  0  0  0  0  0  0  0  0  0  0  0
   -1.9167   61.4853   83.3866 C   0  0  0  0  0  0  0  0  0  0  0  0
    3.0677   69.4986   82.3651 S   0  0  0  0  0  0  0  0  0  0  0  0
    3.8084   69.9721   81.2161 O   0  0  0  0  0  0  0  0  0  0  0  0
    3.7228   69.3004   83.6413 O   0  0  0  0  0  0  0  0  0  0  0  0
    1.7491   70.5536   82.6111 N   0  0  0  0  0  0  0  0  0  0  0  0
    0.6336   70.4243   81.6128 C   0  0  0  0  0  0  0  0  0  0  0  0
   -0.2651   71.6744   81.6218 C   0  0  0  0  0  0  0  0  0  0  0  0
    0.4474   72.8956   81.1958 N   0  0  0  0  0  0  0  0  0  0  0  0
   -0.2370   74.0898   81.6834 C   0  0  0  0  0  0  0  0  0  0  0  0
    1.8673   72.8644   81.6028 C   0  0  0  0  0  0  0  0  0  0  0  0
    2.1600   71.9829   82.8302 C   0  0  0  0  0  0  0  0  0  0  0  0
    0.3377   64.3950   80.9845 O   0  0  0  0  0  0  0  0  0  0  0  0
    0.0000   64.1061   79.6271 C   0  0  0  0  0  0  0  0  0  0  0  0
    0.3357   62.6484   79.3672 C   0  0  0  0  0  0  0  0  0  0  0  0
 21 22  1  0  0  0
 22 20  1  0  0  0
 20  7  1  0  0  0
  7  8  1  0  0  0
  8  9  2  0  0  0
  8 10  1  0  0  0
 10 11  1  0  0  0
 10 12  1  0  0  0
 12 13  2  0  0  0
 12 14  1  0  0  0
 14 15  1  0  0  0
 15 16  1  0  0  0
 16  1  1  0  0  0
  1  2  1  0  0  0
  2  3  2  0  0  0
  3 23  1  0  0  0
 23 24  2  0  0  0
 23 25  2  0  0  0
 23 26  1  0  0  0
 26 27  1  0  0  0
 27 28  1  0  0  0
 28 29  1  0  0  0
 29 30  1  0  0  0
 29 31  1  0  0  0
 31 32  1  0  0  0
  3  4  1  0  0  0
  4  5  2  0  0  0
  5  6  1  0  0  0
  6 33  1  0  0  0
 33 34  1  0  0  0
 34 35  1  0  0  0
 16 17  2  0  0  0
 17 18  1  0  0  0
 18  7  1  0  0  0
 18 14  2  0  0  0
  6  1  2  0  0  0
 32 26  1  0  0  0
 15 19  1  0  0  0
M  END
> <minimizedAffinity>
-9.19538

$$$$
