


 28 33  0  0  0  0  0  0  0  0999 V2000
   -2.2826   63.2030   81.9263 C   0  0  0  0  0  0  0  0  0  0  0  0
   -1.2161   63.7283   82.7540 N   0  0  0  0  0  0  0  0  0  0  0  0
   -0.3360   64.6832   82.2274 C   0  0  0  0  0  0  0  0  0  0  0  0
   -0.4222   65.1287   81.0860 O   0  0  0  0  0  0  0  0  0  0  0  0
    0.6863   65.0979   83.1518 C   0  0  0  0  0  0  0  0  0  0  0  0
    0.7721   64.6241   84.4310 C   0  0  0  0  0  0  0  0  0  0  0  0
    1.8139   65.1472   85.1144 N   0  0  0  0  0  0  0  0  0  0  0  0
    2.3964   65.9790   84.2639 C   0  0  0  0  0  0  0  0  0  0  0  0
    1.7362   65.9763   83.0402 N   0  0  0  0  0  0  0  0  0  0  0  0
   -0.1147   63.7433   84.8867 N   0  0  0  0  0  0  0  0  0  0  0  0
   -1.0859   63.2647   84.0562 C   0  0  0  0  0  0  0  0  0  0  0  0
   -1.8786   62.3513   84.5603 N   0  0  0  0  0  0  0  0  0  0  0  0
   -1.3568   62.1494   85.9534 C   0  0  0  0  0  0  0  0  0  0  0  0
   -2.4085   62.5589   86.9809 C   0  0  0  0  0  0  0  0  0  0  0  0
   -1.6084   63.2527   88.0722 C   0  0  0  0  0  0  0  0  0  0  0  0
   -0.5654   64.0439   87.2970 C   0  0  0  0  0  0  0  0  0  0  0  0
   -0.1526   63.1087   86.1648 C   0  0  0  0  0  0  0  0  0  0  0  0
    3.5987   66.8284   84.5605 C   0  0  0  0  0  0  0  0  0  0  0  0
    4.9016   66.0797   84.6418 C   0  0  0  0  0  0  0  0  0  0  0  0
    6.0040   66.5658   85.5486 C   0  0  0  0  0  0  0  0  0  0  0  0
    5.2626   65.3001   85.8806 C   0  0  0  0  0  0  0  0  0  0  0  0
    2.1320   66.7080   81.8436 C   0  0  0  0  0  0  0  0  0  0  0  0
    1.5130   68.0822   81.7776 C   0  0  0  0  0  0  0  0  0  0  0  0
    0.4296   68.3438   80.9255 C   0  0  0  0  0  0  0  0  0  0  0  0
   -0.1370   69.6181   80.8663 C   0  0  0  0  0  0  0  0  0  0  0  0
    0.3760   70.6479   81.6512 C   0  0  0  0  0  0  0  0  0  0  0  0
    1.4597   70.4065   82.4923 C   0  0  0  0  0  0  0  0  0  0  0  0
    2.0283   69.1328   82.5528 C   0  0  0  0  0  0  0  0  0  0  0  0
  1  2  1  0  0  0
  2  3  1  0  0  0
  3  4  2  0  0  0
  3  5  1  0  0  0
  5  6  2  0  0  0
  6  7  1  0  0  0
  7  8  2  0  0  0
  8 18  1  0  0  0
 18 19  1  0  0  0
 19 20  1  0  0  0
 20 21  1  0  0  0
  8  9  1  0  0  0
  9 22  1  0  0  0
 22 23  1  0  0  0
 23 24  2  0  0  0
 24 25  1  0  0  0
 25 26  2  0  0  0
 26 27  1  0  0  0
 27 28  2  0  0  0
  6 10  1  0  0  0
 10 11  1  0  0  0
 11 12  2  0  0  0
 12 13  1  0  0  0
 13 14  1  0  0  0
 14 15  1  0  0  0
 15 16  1  0  0  0
 16 17  1  0  0  0
 11  2  1  0  0  0
 17 13  1  0  0  0
  9  5  1  0  0  0
 28 23  1  0  0  0
 17 10  1  0  0  0
 21 19  1  0  0  0
M  END
> <minimizedAffinity>
-10.30547

$$$$



 28 33  0  0  0  0  0  0  0  0999 V2000
    1.3066   66.0430   79.1152 C   0  0  0  0  0  0  0  0  0  0  0  0
    0.9788   65.4949   80.4155 N   0  0  0  0  0  0  0  0  0  0  0  0
    1.3740   66.1762   81.5747 C   0  0  0  0  0  0  0  0  0  0  0  0
    1.9806   67.2441   81.5603 O   0  0  0  0  0  0  0  0  0  0  0  0
    1.0023   65.5062   82.7930 C   0  0  0  0  0  0  0  0  0  0  0  0
    0.3056   64.3304   82.8151 C   0  0  0  0  0  0  0  0  0  0  0  0
    0.0741   63.8824   84.0689 N   0  0  0  0  0  0  0  0  0  0  0  0
    0.6194   64.7923   84.8622 C   0  0  0  0  0  0  0  0  0  0  0  0
    1.2066   65.8088   84.1171 N   0  0  0  0  0  0  0  0  0  0  0  0
   -0.0735   63.7476   81.6809 N   0  0  0  0  0  0  0  0  0  0  0  0
    0.2823   64.2958   80.4830 C   0  0  0  0  0  0  0  0  0  0  0  0
   -0.0718   63.6269   79.4135 N   0  0  0  0  0  0  0  0  0  0  0  0
   -0.7611   62.4105   79.9603 C   0  0  0  0  0  0  0  0  0  0  0  0
   -2.2286   62.3961   79.5411 C   0  0  0  0  0  0  0  0  0  0  0  0
   -2.9599   61.8864   80.7733 C   0  0  0  0  0  0  0  0  0  0  0  0
   -2.2256   62.5590   81.9235 C   0  0  0  0  0  0  0  0  0  0  0  0
   -0.7578   62.5064   81.5114 C   0  0  0  0  0  0  0  0  0  0  0  0
    0.6079   64.7592   86.3634 C   0  0  0  0  0  0  0  0  0  0  0  0
    0.0403   63.5031   86.9672 C   0  0  0  0  0  0  0  0  0  0  0  0
    0.3319   63.1495   88.4039 C   0  0  0  0  0  0  0  0  0  0  0  0
   -1.0534   63.5755   88.0023 C   0  0  0  0  0  0  0  0  0  0  0  0
    1.9627   66.9385   84.6422 C   0  0  0  0  0  0  0  0  0  0  0  0
    3.4420   66.6536   84.7236 C   0  0  0  0  0  0  0  0  0  0  0  0
    3.9171   65.4795   85.3269 C   0  0  0  0  0  0  0  0  0  0  0  0
    5.2871   65.2228   85.4021 C   0  0  0  0  0  0  0  0  0  0  0  0
    6.1990   66.1386   84.8828 C   0  0  0  0  0  0  0  0  0  0  0  0
    5.7426   67.3148   84.2926 C   0  0  0  0  0  0  0  0  0  0  0  0
    4.3729   67.5739   84.2168 C   0  0  0  0  0  0  0  0  0  0  0  0
  1  2  1  0  0  0
  2  3  1  0  0  0
  3  4  2  0  0  0
  3  5  1  0  0  0
  5  6  2  0  0  0
  6  7  1  0  0  0
  7  8  2  0  0  0
  8 18  1  0  0  0
 18 19  1  0  0  0
 19 20  1  0  0  0
 20 21  1  0  0  0
  8  9  1  0  0  0
  9 22  1  0  0  0
 22 23  1  0  0  0
 23 24  2  0  0  0
 24 25  1  0  0  0
 25 26  2  0  0  0
 26 27  1  0  0  0
 27 28  2  0  0  0
  6 10  1  0  0  0
 10 11  1  0  0  0
 11 12  2  0  0  0
 12 13  1  0  0  0
 13 14  1  0  0  0
 14 15  1  0  0  0
 15 16  1  0  0  0
 16 17  1  0  0  0
 11  2  1  0  0  0
 17 13  1  0  0  0
  9  5  1  0  0  0
 28 23  1  0  0  0
 17 10  1  0  0  0
 21 19  1  0  0  0
M  END
> <minimizedAffinity>
-9.68553

$$$$



 28 33  0  0  0  0  0  0  0  0999 V2000
   -0.8966   62.6227   86.3116 C   0  0  0  0  0  0  0  0  0  0  0  0
   -0.4872   63.3678   85.1386 N   0  0  0  0  0  0  0  0  0  0  0  0
    0.3945   64.4482   85.2763 C   0  0  0  0  0  0  0  0  0  0  0  0
    0.8691   64.8036   86.3520 O   0  0  0  0  0  0  0  0  0  0  0  0
    0.6959   65.1094   84.0340 C   0  0  0  0  0  0  0  0  0  0  0  0
    0.1904   64.7029   82.8308 C   0  0  0  0  0  0  0  0  0  0  0  0
    0.6028   65.4754   81.8016 N   0  0  0  0  0  0  0  0  0  0  0  0
    1.3954   66.3826   82.3525 C   0  0  0  0  0  0  0  0  0  0  0  0
    1.4775   66.1965   83.7279 N   0  0  0  0  0  0  0  0  0  0  0  0
   -0.6154   63.6469   82.7580 N   0  0  0  0  0  0  0  0  0  0  0  0
   -0.9870   62.9955   83.8980 C   0  0  0  0  0  0  0  0  0  0  0  0
   -1.8347   62.0076   83.7488 N   0  0  0  0  0  0  0  0  0  0  0  0
   -2.1114   61.9891   82.2734 C   0  0  0  0  0  0  0  0  0  0  0  0
   -1.6292   60.6786   81.6572 C   0  0  0  0  0  0  0  0  0  0  0  0
   -1.0330   61.0956   80.3217 C   0  0  0  0  0  0  0  0  0  0  0  0
   -0.3242   62.4027   80.6437 C   0  0  0  0  0  0  0  0  0  0  0  0
   -1.2698   63.1129   81.6072 C   0  0  0  0  0  0  0  0  0  0  0  0
    2.1261   67.4662   81.6129 C   0  0  0  0  0  0  0  0  0  0  0  0
    1.4106   68.7887   81.5530 C   0  0  0  0  0  0  0  0  0  0  0  0
    1.5081   69.6522   80.3206 C   0  0  0  0  0  0  0  0  0  0  0  0
    0.2102   68.9719   80.6594 C   0  0  0  0  0  0  0  0  0  0  0  0
    2.1944   67.0433   84.6729 C   0  0  0  0  0  0  0  0  0  0  0  0
    3.6611   66.7000   84.7562 C   0  0  0  0  0  0  0  0  0  0  0  0
    4.0866   65.4927   85.3302 C   0  0  0  0  0  0  0  0  0  0  0  0
    5.4452   65.1818   85.4074 C   0  0  0  0  0  0  0  0  0  0  0  0
    6.3952   66.0758   84.9194 C   0  0  0  0  0  0  0  0  0  0  0  0
    5.9884   67.2842   84.3587 C   0  0  0  0  0  0  0  0  0  0  0  0
    4.6301   67.5974   84.2809 C   0  0  0  0  0  0  0  0  0  0  0  0
  1  2  1  0  0  0
  2  3  1  0  0  0
  3  4  2  0  0  0
  3  5  1  0  0  0
  5  6  2  0  0  0
  6  7  1  0  0  0
  7  8  2  0  0  0
  8 18  1  0  0  0
 18 19  1  0  0  0
 19 20  1  0  0  0
 20 21  1  0  0  0
  8  9  1  0  0  0
  9 22  1  0  0  0
 22 23  1  0  0  0
 23 24  2  0  0  0
 24 25  1  0  0  0
 25 26  2  0  0  0
 26 27  1  0  0  0
 27 28  2  0  0  0
  6 10  1  0  0  0
 10 11  1  0  0  0
 11 12  2  0  0  0
 12 13  1  0  0  0
 13 14  1  0  0  0
 14 15  1  0  0  0
 15 16  1  0  0  0
 16 17  1  0  0  0
 11  2  1  0  0  0
 17 13  1  0  0  0
  9  5  1  0  0  0
 28 23  1  0  0  0
 17 10  1  0  0  0
 21 19  1  0  0  0
M  END
> <minimizedAffinity>
-9.65947

$$$$



 28 33  0  0  0  0  0  0  0  0999 V2000
    2.7445   67.5913   84.5927 C   0  0  0  0  0  0  0  0  0  0  0  0
    1.9468   66.7558   83.7184 N   0  0  0  0  0  0  0  0  0  0  0  0
    1.5476   65.4836   84.1496 C   0  0  0  0  0  0  0  0  0  0  0  0
    1.8220   65.0252   85.2556 O   0  0  0  0  0  0  0  0  0  0  0  0
    0.7814   64.7568   83.1718 C   0  0  0  0  0  0  0  0  0  0  0  0
    0.4521   65.2716   81.9491 C   0  0  0  0  0  0  0  0  0  0  0  0
   -0.2644   64.4099   81.1939 N   0  0  0  0  0  0  0  0  0  0  0  0
   -0.4074   63.3316   81.9498 C   0  0  0  0  0  0  0  0  0  0  0  0
    0.2258   63.5007   83.1761 N   0  0  0  0  0  0  0  0  0  0  0  0
    0.8301   66.5009   81.6090 N   0  0  0  0  0  0  0  0  0  0  0  0
    1.6003   67.2359   82.4626 C   0  0  0  0  0  0  0  0  0  0  0  0
    1.9865   68.4097   82.0271 N   0  0  0  0  0  0  0  0  0  0  0  0
    1.4116   68.4881   80.6425 C   0  0  0  0  0  0  0  0  0  0  0  0
    0.3940   69.6220   80.5515 C   0  0  0  0  0  0  0  0  0  0  0  0
   -0.7164   69.0532   79.6820 C   0  0  0  0  0  0  0  0  0  0  0  0
   -0.8251   67.6088   80.1476 C   0  0  0  0  0  0  0  0  0  0  0  0
    0.6212   67.1781   80.3698 C   0  0  0  0  0  0  0  0  0  0  0  0
   -1.1563   62.0889   81.5628 C   0  0  0  0  0  0  0  0  0  0  0  0
   -2.6466   62.2573   81.4395 C   0  0  0  0  0  0  0  0  0  0  0  0
   -3.3553   61.8614   80.1687 C   0  0  0  0  0  0  0  0  0  0  0  0
   -3.5559   61.0549   81.4221 C   0  0  0  0  0  0  0  0  0  0  0  0
    0.3431   62.5037   84.2324 C   0  0  0  0  0  0  0  0  0  0  0  0
   -0.6697   62.7073   85.3318 C   0  0  0  0  0  0  0  0  0  0  0  0
   -0.2769   63.1722   86.5958 C   0  0  0  0  0  0  0  0  0  0  0  0
   -1.2181   63.3557   87.6101 C   0  0  0  0  0  0  0  0  0  0  0  0
   -2.5611   63.0700   87.3769 C   0  0  0  0  0  0  0  0  0  0  0  0
   -2.9642   62.5952   86.1310 C   0  0  0  0  0  0  0  0  0  0  0  0
   -2.0245   62.4105   85.1152 C   0  0  0  0  0  0  0  0  0  0  0  0
  1  2  1  0  0  0
  2  3  1  0  0  0
  3  4  2  0  0  0
  3  5  1  0  0  0
  5  6  2  0  0  0
  6  7  1  0  0  0
  7  8  2  0  0  0
  8 18  1  0  0  0
 18 19  1  0  0  0
 19 20  1  0  0  0
 20 21  1  0  0  0
  8  9  1  0  0  0
  9 22  1  0  0  0
 22 23  1  0  0  0
 23 24  2  0  0  0
 24 25  1  0  0  0
 25 26  2  0  0  0
 26 27  1  0  0  0
 27 28  2  0  0  0
  6 10  1  0  0  0
 10 11  1  0  0  0
 11 12  2  0  0  0
 12 13  1  0  0  0
 13 14  1  0  0  0
 14 15  1  0  0  0
 15 16  1  0  0  0
 16 17  1  0  0  0
 11  2  1  0  0  0
 17 13  1  0  0  0
  9  5  1  0  0  0
 28 23  1  0  0  0
 17 10  1  0  0  0
 21 19  1  0  0  0
M  END
> <minimizedAffinity>
-9.52139

$$$$



 28 33  0  0  0  0  0  0  0  0999 V2000
   -0.0596   64.0528   76.8979 C   0  0  0  0  0  0  0  0  0  0  0  0
   -0.1768   64.0396   78.3418 N   0  0  0  0  0  0  0  0  0  0  0  0
    0.5593   64.9555   79.1055 C   0  0  0  0  0  0  0  0  0  0  0  0
    1.3034   65.8022   78.6176 O   0  0  0  0  0  0  0  0  0  0  0  0
    0.3635   64.8130   80.5242 C   0  0  0  0  0  0  0  0  0  0  0  0
   -0.4821   63.8891   81.0716 C   0  0  0  0  0  0  0  0  0  0  0  0
   -0.5014   63.9320   82.4221 N   0  0  0  0  0  0  0  0  0  0  0  0
    0.3348   64.9076   82.7441 C   0  0  0  0  0  0  0  0  0  0  0  0
    0.8938   65.4751   81.6045 N   0  0  0  0  0  0  0  0  0  0  0  0
   -1.1823   63.0685   80.2930 N   0  0  0  0  0  0  0  0  0  0  0  0
   -1.0159   63.1088   78.9393 C   0  0  0  0  0  0  0  0  0  0  0  0
   -1.6910   62.2243   78.2475 N   0  0  0  0  0  0  0  0  0  0  0  0
   -2.4218   61.4308   79.2916 C   0  0  0  0  0  0  0  0  0  0  0  0
   -3.9301   61.6017   79.1319 C   0  0  0  0  0  0  0  0  0  0  0  0
   -4.4453   61.6897   80.5601 C   0  0  0  0  0  0  0  0  0  0  0  0
   -3.3854   62.5209   81.2675 C   0  0  0  0  0  0  0  0  0  0  0  0
   -2.0675   62.0196   80.6855 C   0  0  0  0  0  0  0  0  0  0  0  0
    0.6445   65.3648   84.1406 C   0  0  0  0  0  0  0  0  0  0  0  0
    0.8297   64.2595   85.1449 C   0  0  0  0  0  0  0  0  0  0  0  0
    0.5793   64.5121   86.6103 C   0  0  0  0  0  0  0  0  0  0  0  0
   -0.3607   63.6363   85.8285 C   0  0  0  0  0  0  0  0  0  0  0  0
    1.9085   66.5205   81.5689 C   0  0  0  0  0  0  0  0  0  0  0  0
    1.3096   67.9051   81.5797 C   0  0  0  0  0  0  0  0  0  0  0  0
    0.2611   68.2430   80.7110 C   0  0  0  0  0  0  0  0  0  0  0  0
   -0.2870   69.5267   80.7233 C   0  0  0  0  0  0  0  0  0  0  0  0
    0.2103   70.4902   81.5975 C   0  0  0  0  0  0  0  0  0  0  0  0
    1.2598   70.1733   82.4567 C   0  0  0  0  0  0  0  0  0  0  0  0
    1.8098   68.8901   82.4457 C   0  0  0  0  0  0  0  0  0  0  0  0
  1  2  1  0  0  0
  2  3  1  0  0  0
  3  4  2  0  0  0
  3  5  1  0  0  0
  5  6  2  0  0  0
  6  7  1  0  0  0
  7  8  2  0  0  0
  8 18  1  0  0  0
 18 19  1  0  0  0
 19 20  1  0  0  0
 20 21  1  0  0  0
  8  9  1  0  0  0
  9 22  1  0  0  0
 22 23  1  0  0  0
 23 24  2  0  0  0
 24 25  1  0  0  0
 25 26  2  0  0  0
 26 27  1  0  0  0
 27 28  2  0  0  0
  6 10  1  0  0  0
 10 11  1  0  0  0
 11 12  2  0  0  0
 12 13  1  0  0  0
 13 14  1  0  0  0
 14 15  1  0  0  0
 15 16  1  0  0  0
 16 17  1  0  0  0
 11  2  1  0  0  0
 17 13  1  0  0  0
  9  5  1  0  0  0
 28 23  1  0  0  0
 17 10  1  0  0  0
 21 19  1  0  0  0
M  END
> <minimizedAffinity>
-9.51699

$$$$



 28 33  0  0  0  0  0  0  0  0999 V2000
    3.9862   68.1272   85.0413 C   0  0  0  0  0  0  0  0  0  0  0  0
    2.9916   67.7151   84.0720 N   0  0  0  0  0  0  0  0  0  0  0  0
    2.5105   66.3990   84.0891 C   0  0  0  0  0  0  0  0  0  0  0  0
    2.8732   65.5547   84.9041 O   0  0  0  0  0  0  0  0  0  0  0  0
    1.5457   66.1236   83.0572 C   0  0  0  0  0  0  0  0  0  0  0  0
    1.1200   67.0659   82.1633 C   0  0  0  0  0  0  0  0  0  0  0  0
    0.2180   66.5813   81.2814 N   0  0  0  0  0  0  0  0  0  0  0  0
    0.0536   65.3125   81.6243 C   0  0  0  0  0  0  0  0  0  0  0  0
    0.8566   64.9869   82.7117 N   0  0  0  0  0  0  0  0  0  0  0  0
    1.5873   68.3102   82.2185 N   0  0  0  0  0  0  0  0  0  0  0  0
    2.5407   68.6381   83.1381 C   0  0  0  0  0  0  0  0  0  0  0  0
    2.9973   69.8651   83.0846 N   0  0  0  0  0  0  0  0  0  0  0  0
    2.2590   70.4749   81.9284 C   0  0  0  0  0  0  0  0  0  0  0  0
    1.3735   71.6221   82.4071 C   0  0  0  0  0  0  0  0  0  0  0  0
    0.1017   71.4745   81.5864 C   0  0  0  0  0  0  0  0  0  0  0  0
   -0.1083   69.9688   81.5278 C   0  0  0  0  0  0  0  0  0  0  0  0
    1.2964   69.4025   81.3466 C   0  0  0  0  0  0  0  0  0  0  0  0
   -0.8755   64.3417   80.9539 C   0  0  0  0  0  0  0  0  0  0  0  0
   -0.2636   63.5483   79.8311 C   0  0  0  0  0  0  0  0  0  0  0  0
    0.0554   62.0863   80.0173 C   0  0  0  0  0  0  0  0  0  0  0  0
   -1.0675   62.4991   79.1060 C   0  0  0  0  0  0  0  0  0  0  0  0
    0.9971   63.6691   83.3179 C   0  0  0  0  0  0  0  0  0  0  0  0
   -0.0305   63.4171   84.3932 C   0  0  0  0  0  0  0  0  0  0  0  0
    0.2178   63.7796   85.7256 C   0  0  0  0  0  0  0  0  0  0  0  0
   -0.7355   63.5411   86.7169 C   0  0  0  0  0  0  0  0  0  0  0  0
   -1.9446   62.9312   86.3912 C   0  0  0  0  0  0  0  0  0  0  0  0
   -2.1999   62.5539   85.0750 C   0  0  0  0  0  0  0  0  0  0  0  0
   -1.2476   62.7910   84.0819 C   0  0  0  0  0  0  0  0  0  0  0  0
  1  2  1  0  0  0
  2  3  1  0  0  0
  3  4  2  0  0  0
  3  5  1  0  0  0
  5  6  2  0  0  0
  6  7  1  0  0  0
  7  8  2  0  0  0
  8 18  1  0  0  0
 18 19  1  0  0  0
 19 20  1  0  0  0
 20 21  1  0  0  0
  8  9  1  0  0  0
  9 22  1  0  0  0
 22 23  1  0  0  0
 23 24  2  0  0  0
 24 25  1  0  0  0
 25 26  2  0  0  0
 26 27  1  0  0  0
 27 28  2  0  0  0
  6 10  1  0  0  0
 10 11  1  0  0  0
 11 12  2  0  0  0
 12 13  1  0  0  0
 13 14  1  0  0  0
 14 15  1  0  0  0
 15 16  1  0  0  0
 16 17  1  0  0  0
 11  2  1  0  0  0
 17 13  1  0  0  0
  9  5  1  0  0  0
 28 23  1  0  0  0
 17 10  1  0  0  0
 21 19  1  0  0  0
M  END
> <minimizedAffinity>
-9.50360

$$$$



 28 33  0  0  0  0  0  0  0  0999 V2000
    2.9506   69.4173   81.0608 C   0  0  0  0  0  0  0  0  0  0  0  0
    2.4989   68.2523   81.7940 N   0  0  0  0  0  0  0  0  0  0  0  0
    1.4684   67.4601   81.2703 C   0  0  0  0  0  0  0  0  0  0  0  0
    0.9204   67.6844   80.1941 O   0  0  0  0  0  0  0  0  0  0  0  0
    1.1069   66.3515   82.1139 C   0  0  0  0  0  0  0  0  0  0  0  0
    1.7301   66.0828   83.3005 C   0  0  0  0  0  0  0  0  0  0  0  0
    1.2211   64.9981   83.9253 N   0  0  0  0  0  0  0  0  0  0  0  0
    0.2660   64.5576   83.1200 C   0  0  0  0  0  0  0  0  0  0  0  0
    0.1587   65.3652   81.9934 N   0  0  0  0  0  0  0  0  0  0  0  0
    2.7274   66.8514   83.7297 N   0  0  0  0  0  0  0  0  0  0  0  0
    3.0971   67.9501   83.0099 C   0  0  0  0  0  0  0  0  0  0  0  0
    4.0418   68.6924   83.5328 N   0  0  0  0  0  0  0  0  0  0  0  0
    4.3584   68.0111   84.8325 C   0  0  0  0  0  0  0  0  0  0  0  0
    5.7965   67.4999   84.8296 C   0  0  0  0  0  0  0  0  0  0  0  0
    5.7106   66.1510   85.5267 C   0  0  0  0  0  0  0  0  0  0  0  0
    4.4094   65.5636   85.0007 C   0  0  0  0  0  0  0  0  0  0  0  0
    3.4549   66.7525   84.9539 C   0  0  0  0  0  0  0  0  0  0  0  0
   -0.5892   63.3473   83.3625 C   0  0  0  0  0  0  0  0  0  0  0  0
    0.1382   62.0315   83.2969 C   0  0  0  0  0  0  0  0  0  0  0  0
   -0.2282   61.0101   82.2497 C   0  0  0  0  0  0  0  0  0  0  0  0
    1.0868   61.7348   82.1634 C   0  0  0  0  0  0  0  0  0  0  0  0
   -0.8261   65.2341   80.9272 C   0  0  0  0  0  0  0  0  0  0  0  0
   -0.4457   64.1789   79.9183 C   0  0  0  0  0  0  0  0  0  0  0  0
    0.7422   64.2841   79.1793 C   0  0  0  0  0  0  0  0  0  0  0  0
    1.0874   63.3063   78.2449 C   0  0  0  0  0  0  0  0  0  0  0  0
    0.2473   62.2161   78.0319 C   0  0  0  0  0  0  0  0  0  0  0  0
   -0.9418   62.1048   78.7487 C   0  0  0  0  0  0  0  0  0  0  0  0
   -1.2893   63.0819   79.6834 C   0  0  0  0  0  0  0  0  0  0  0  0
  1  2  1  0  0  0
  2  3  1  0  0  0
  3  4  2  0  0  0
  3  5  1  0  0  0
  5  6  2  0  0  0
  6  7  1  0  0  0
  7  8  2  0  0  0
  8 18  1  0  0  0
 18 19  1  0  0  0
 19 20  1  0  0  0
 20 21  1  0  0  0
  8  9  1  0  0  0
  9 22  1  0  0  0
 22 23  1  0  0  0
 23 24  2  0  0  0
 24 25  1  0  0  0
 25 26  2  0  0  0
 26 27  1  0  0  0
 27 28  2  0  0  0
  6 10  1  0  0  0
 10 11  1  0  0  0
 11 12  2  0  0  0
 12 13  1  0  0  0
 13 14  1  0  0  0
 14 15  1  0  0  0
 15 16  1  0  0  0
 16 17  1  0  0  0
 11  2  1  0  0  0
 17 13  1  0  0  0
  9  5  1  0  0  0
 28 23  1  0  0  0
 17 10  1  0  0  0
 21 19  1  0  0  0
M  END
> <minimizedAffinity>
-9.31403

$$$$



 28 33  0  0  0  0  0  0  0  0999 V2000
   -0.8240   62.2440   84.0005 C   0  0  0  0  0  0  0  0  0  0  0  0
   -0.3080   63.3093   83.1653 N   0  0  0  0  0  0  0  0  0  0  0  0
    0.3902   64.3736   83.7516 C   0  0  0  0  0  0  0  0  0  0  0  0
    0.6144   64.4560   84.9565 O   0  0  0  0  0  0  0  0  0  0  0  0
    0.8240   65.3693   82.8073 C   0  0  0  0  0  0  0  0  0  0  0  0
    0.5990   65.2705   81.4627 C   0  0  0  0  0  0  0  0  0  0  0  0
    1.0886   66.3231   80.7710 N   0  0  0  0  0  0  0  0  0  0  0  0
    1.6475   67.1017   81.6855 C   0  0  0  0  0  0  0  0  0  0  0  0
    1.5036   66.5537   82.9552 N   0  0  0  0  0  0  0  0  0  0  0  0
   -0.0399   64.2176   80.9597 N   0  0  0  0  0  0  0  0  0  0  0  0
   -0.5249   63.2539   81.7952 C   0  0  0  0  0  0  0  0  0  0  0  0
   -1.1997   62.2841   81.2286 N   0  0  0  0  0  0  0  0  0  0  0  0
   -1.2016   62.6487   79.7723 C   0  0  0  0  0  0  0  0  0  0  0  0
   -0.4541   61.5958   78.9584 C   0  0  0  0  0  0  0  0  0  0  0  0
    0.3150   62.4047   77.9254 C   0  0  0  0  0  0  0  0  0  0  0  0
    0.7826   63.6232   78.7073 C   0  0  0  0  0  0  0  0  0  0  0  0
   -0.4034   63.9710   79.6014 C   0  0  0  0  0  0  0  0  0  0  0  0
    2.3559   68.3972   81.4121 C   0  0  0  0  0  0  0  0  0  0  0  0
    1.5978   69.6334   81.8143 C   0  0  0  0  0  0  0  0  0  0  0  0
    1.2860   70.7007   80.7957 C   0  0  0  0  0  0  0  0  0  0  0  0
    0.1790   69.8479   81.3518 C   0  0  0  0  0  0  0  0  0  0  0  0
    1.9253   67.1611   84.2110 C   0  0  0  0  0  0  0  0  0  0  0  0
    3.3847   66.9189   84.5065 C   0  0  0  0  0  0  0  0  0  0  0  0
    3.8284   65.6707   84.9684 C   0  0  0  0  0  0  0  0  0  0  0  0
    5.1796   65.4533   85.2431 C   0  0  0  0  0  0  0  0  0  0  0  0
    6.1024   66.4816   85.0673 C   0  0  0  0  0  0  0  0  0  0  0  0
    5.6748   67.7301   84.6219 C   0  0  0  0  0  0  0  0  0  0  0  0
    4.3238   67.9499   84.3469 C   0  0  0  0  0  0  0  0  0  0  0  0
  1  2  1  0  0  0
  2  3  1  0  0  0
  3  4  2  0  0  0
  3  5  1  0  0  0
  5  6  2  0  0  0
  6  7  1  0  0  0
  7  8  2  0  0  0
  8 18  1  0  0  0
 18 19  1  0  0  0
 19 20  1  0  0  0
 20 21  1  0  0  0
  8  9  1  0  0  0
  9 22  1  0  0  0
 22 23  1  0  0  0
 23 24  2  0  0  0
 24 25  1  0  0  0
 25 26  2  0  0  0
 26 27  1  0  0  0
 27 28  2  0  0  0
  6 10  1  0  0  0
 10 11  1  0  0  0
 11 12  2  0  0  0
 12 13  1  0  0  0
 13 14  1  0  0  0
 14 15  1  0  0  0
 15 16  1  0  0  0
 16 17  1  0  0  0
 11  2  1  0  0  0
 17 13  1  0  0  0
  9  5  1  0  0  0
 28 23  1  0  0  0
 17 10  1  0  0  0
 21 19  1  0  0  0
M  END
> <minimizedAffinity>
-9.30942

$$$$



 28 33  0  0  0  0  0  0  0  0999 V2000
   -0.4895   63.9668   79.5248 C   0  0  0  0  0  0  0  0  0  0  0  0
    0.0967   64.4768   80.7476 N   0  0  0  0  0  0  0  0  0  0  0  0
    0.7582   65.7121   80.7366 C   0  0  0  0  0  0  0  0  0  0  0  0
    0.8615   66.4174   79.7364 O   0  0  0  0  0  0  0  0  0  0  0  0
    1.3105   66.0825   82.0130 C   0  0  0  0  0  0  0  0  0  0  0  0
    1.1772   65.3133   83.1351 C   0  0  0  0  0  0  0  0  0  0  0  0
    1.7814   65.8546   84.2158 N   0  0  0  0  0  0  0  0  0  0  0  0
    2.2982   66.9946   83.7822 C   0  0  0  0  0  0  0  0  0  0  0  0
    2.0353   67.1726   82.4286 N   0  0  0  0  0  0  0  0  0  0  0  0
    0.5068   64.1651   83.0920 N   0  0  0  0  0  0  0  0  0  0  0  0
   -0.0056   63.7211   81.9078 C   0  0  0  0  0  0  0  0  0  0  0  0
   -0.5937   62.5506   81.9353 N   0  0  0  0  0  0  0  0  0  0  0  0
   -0.4424   62.1040   83.3606 C   0  0  0  0  0  0  0  0  0  0  0  0
   -1.8099   61.9715   84.0254 C   0  0  0  0  0  0  0  0  0  0  0  0
   -1.5906   62.5078   85.4315 C   0  0  0  0  0  0  0  0  0  0  0  0
   -0.6622   63.6938   85.2167 C   0  0  0  0  0  0  0  0  0  0  0  0
    0.3094   63.2176   84.1414 C   0  0  0  0  0  0  0  0  0  0  0  0
    3.0577   67.9821   84.6207 C   0  0  0  0  0  0  0  0  0  0  0  0
    4.5273   67.6935   84.7677 C   0  0  0  0  0  0  0  0  0  0  0  0
    5.2099   67.8763   86.0999 C   0  0  0  0  0  0  0  0  0  0  0  0
    4.9994   66.4931   85.5481 C   0  0  0  0  0  0  0  0  0  0  0  0
    2.5075   68.2700   81.5939 C   0  0  0  0  0  0  0  0  0  0  0  0
    1.6472   69.5025   81.7218 C   0  0  0  0  0  0  0  0  0  0  0  0
    0.3391   69.5233   81.2152 C   0  0  0  0  0  0  0  0  0  0  0  0
   -0.4513   70.6678   81.3337 C   0  0  0  0  0  0  0  0  0  0  0  0
    0.0575   71.8072   81.9523 C   0  0  0  0  0  0  0  0  0  0  0  0
    1.3590   71.8058   82.4484 C   0  0  0  0  0  0  0  0  0  0  0  0
    2.1515   70.6624   82.3306 C   0  0  0  0  0  0  0  0  0  0  0  0
  1  2  1  0  0  0
  2  3  1  0  0  0
  3  4  2  0  0  0
  3  5  1  0  0  0
  5  6  2  0  0  0
  6  7  1  0  0  0
  7  8  2  0  0  0
  8 18  1  0  0  0
 18 19  1  0  0  0
 19 20  1  0  0  0
 20 21  1  0  0  0
  8  9  1  0  0  0
  9 22  1  0  0  0
 22 23  1  0  0  0
 23 24  2  0  0  0
 24 25  1  0  0  0
 25 26  2  0  0  0
 26 27  1  0  0  0
 27 28  2  0  0  0
  6 10  1  0  0  0
 10 11  1  0  0  0
 11 12  2  0  0  0
 12 13  1  0  0  0
 13 14  1  0  0  0
 14 15  1  0  0  0
 15 16  1  0  0  0
 16 17  1  0  0  0
 11  2  1  0  0  0
 17 13  1  0  0  0
  9  5  1  0  0  0
 28 23  1  0  0  0
 17 10  1  0  0  0
 21 19  1  0  0  0
M  END
> <minimizedAffinity>
-9.27616

$$$$
